
//   CFDEM_run   //

/home/pse/Filtration_Simulator/examples/uniform/CFDEM_SI/CFD

/*---------------------------------------------------------------------------*\
| =========                 |                                                 |
| \\      /  F ield         | OpenFOAM: The Open Source CFD Toolbox           |
|  \\    /   O peration     | Version:  5.x                                   |
|   \\  /    A nd           | Web:      www.OpenFOAM.org                      |
|    \\/     M anipulation  |                                                 |
\*---------------------------------------------------------------------------*/
Build  : 5.x-7f7d351b741b
Exec   : cfdemSolverPiso -parallel
Date   : Mar 07 2023
Time   : 10:02:17
Host   : "CFDEM1"
PID    : 55201
I/O    : uncollated
Case   : /home/pse/Filtration_Simulator/examples/uniform/CFDEM_SI/CFD
nProcs : 4
Slaves : 
3
(
"CFDEM1.55202"
"CFDEM1.55203"
"CFDEM1.55204"
)

Pstream initialized with:
    floatTransfer      : 0
    nProcsSimpleSum    : 0
    commsType          : nonBlocking
    polling iterations : 0
sigFpe : Enabling floating point exception trapping (FOAM_SIGFPE).
fileModificationChecking : Monitoring run-time modified files using timeStampMaster (fileModificationSkew 10)
allowSystemOperations : Allowing user-supplied system call operations

// * * * * * * * * * * * * * * * * * * * * * * * * * * * * * * * * * * * * * //
Create time

Create mesh for time = 0


PISO: Operating solver in PISO mode

Reading field p

Reading physical velocity field U
Note: only if voidfraction at boundary is 1, U is superficial velocity!!!


Reading momentum exchange field Ksl


Reading voidfraction field voidfraction = (Vgas/Vparticle)


Creating density field rho

Reading particle velocity field Us

Reading/calculating face flux field phi

Generating interstitial face flux field phiByVoidfraction

Selecting incompressible transport model Newtonian
Selecting turbulence model type laminar
Selecting laminar stress model Stokes
No finite volume options present


Reading g
Selecting locateModel engine
Selecting dataExchangeModel twoWayMPI
Starting up LIGGGHTS for first time execution
Executing input script '../DEM/liggghts_run.txt'
LIGGGHTS (Version LIGGGHTS-PUBLIC 3.8.0, compiled 2022-08-09-18:54:32 by pse, git commit 86544c3f1215bc9744d7929e3eacf53ba086af9e)
Reading restart file ...
WARNING: Restart file version does not match LIGGGHTS version (../read_restart.cpp:507)
   --> restart file = Version LIGGGHTS-PUBLIC 3.8.0, compiled 2022-08-09-18:52:33 by pse, git commit 86544c3f1215bc9744d7929e3eacf53ba086af9e
   --> LIGGGHTS = Version LIGGGHTS-PUBLIC 3.8.0, compiled 2022-08-09-18:54:32 by pse, git commit 86544c3f1215bc9744d7929e3eacf53ba086af9e
version 3 8
version 3 8
version 3 8
version 3 8
  orthogonal box = (-0.005 -0.005 -0.04) to (0.005 0.005 0.05)
  1 by 1 by 4 MPI processor grid
  1400 atoms
INFO: mesh file (../DEM/stl_file/box.stl) is required, but data will be taken from restart file (../fix_mesh.cpp:417)
Resetting global state of Fix cad Style mesh/surface from restart file info
INFO: mesh file (../DEM/stl_file/inlet.stl) is required, but data will be taken from restart file (../fix_mesh.cpp:417)
Resetting global state of Fix inface Style mesh/surface from restart file info
Resetting global state of Fix n_neighs_mesh_cad Style property/atom from restart file info
Resetting per-atom state of Fix n_neighs_mesh_cad Style property/atom from restart file info
Resetting global state of Fix tracker_cad Style contacthistory/mesh from restart file info
Resetting per-atom state of Fix tracker_cad Style contacthistory/mesh from restart file info
1400 atoms in group nve_group
couple_every as specified in LIGGGHTS is overriden by calling external program (../fix_cfd_coupling.cpp:114)
Resetting global state of Fix contacthistory Style contacthistory from restart file info
Resetting per-atom state of Fix contacthistory Style contacthistory from restart file info
Setting up run at Tue Mar  7 10:02:17 2023

Import and parallelization of mesh cad containing 2 triangle(s) successful
Import and parallelization of mesh inface containing 2 triangle(s) successful
Memory usage per processor = 7.05667 Mbytes
    Step    Atoms 
  350000     1400 
Loop time of 2.568e-06 on 4 procs for 0 steps with 1400 atoms, finish time Tue Mar  7 10:02:17 2023


Pair  time (%) = 0 (0)
Neigh time (%) = 0 (0)
Comm  time (%) = 0 (0)
Outpt time (%) = 0 (0)
Other time (%) = 2.568e-06 (100)

Nlocal:    350 ave 806 max 0 min
Histogram: 2 0 0 0 0 0 0 1 0 1
Nghost:    564.5 ave 1198 max 0 min
Histogram: 2 0 0 0 0 0 0 0 1 1
Neighs:    8424.5 ave 19130 max 0 min
Histogram: 2 0 0 0 0 0 0 1 0 1

Total # of neighbors = 33698
Ave neighs/atom = 24.07
Neighbor list builds = 0
Dangerous builds = 0
Selecting IOModel basicIO
Selecting probeModel off
Selecting voidFractionModel divided
Selecting averagingModel dense
Selecting clockModel off
start clock measurement at t >0.002
Selecting smoothingModel off
Selecting meshMotionModel noMeshMotion

CFDEMcoupling version: cfdem-3.8.1
, compatible to LIGGGHTS version: 3.8.0
, compatible to OF version and build: 5.x-commit-538044ac05c4672b37c7df607dca1116fa88df88

You are currently using:
OF version: 5.x
OF build: 5.x-7f7d351b741b
CFDEM build: 3.8.0-3-gb237264-dirty

cg is set to: 1
LIGGGHTS hosts 1 atom types.
If BC are important, please provide volScalarFields -imp/expParticleForces-
ignoring ddt(voidfraction)
Selecting momCoupleModel implicitCouple

implicit momentum exchange field calculate if alphaP larger than : 1
Selecting forceModel GidaspowDrag
 Selecting forceSubModel ImEx
 reading switches:
  looking for treatForceExplicit ...  not found in dict, using default. treatForceExplicit = false
  looking for implForceDEM ...  not found in dict, using default. implForceDEM = false
  looking for verbose ...  found in dict. verbose = true
  looking for interpolation ...  found in dict. interpolation = true
  looking for scalarViscosity ...  not found in dict, using default. scalarViscosity = false

--> FOAM Warning : Please make sure you use the new nomenclature for verbose force model settings, please have a look at the forceSubModel doc.
Selecting forceModel gradPForce
 Selecting forceSubModel ImEx
 reading switches:
  looking for treatForceExplicit ...  not found in dict, using default. treatForceExplicit = true
  looking for verbose ...  not found in dict, using default. verbose = false
  looking for interpolation ...  found in dict. interpolation = true

Selecting forceModel viscForce
 Selecting forceSubModel ImEx
 reading switches:
  looking for treatForceExplicit ...  not found in dict, using default. treatForceExplicit = true
  looking for verbose ...  not found in dict, using default. verbose = false
  looking for interpolation ...  found in dict. interpolation = true
  looking for scalarViscosity ...  not found in dict, using default. scalarViscosity = false

Selecting forceModel fieldStore
Creating field stored_U
Selecting liggghtsCommandModel runLiggghts ,provide dicts, numbered from 0 to n
Selecting liggghtsCommandModel writeLiggghts ,provide dicts, numbered from 0 to n
writeLiggghts: A restart file writeName_write_restart ../DEM/liggghts.restartCFDEM is written.
solving volume averaged Navier Stokes equations of type A
check if Archimedes lift is necessary (depends on pressure formulation)


Starting time loop

--> FOAM Warning : 
    From function void Foam::timeControl::read(const Foam::dictionary&)
    in file db/functionObjects/timeControl/timeControl.C at line 89
    Reading "/home/pse/Filtration_Simulator/examples/uniform/CFDEM_SI/CFD/system/controlDict.functions.probes" from line 54 to line 66
    Using deprecated 'outputControl'
    Please use 'writeControl' with 'writeInterval'
--> FOAM Warning : 
    From function virtual void Foam::probes::findElements(const Foam::fvMesh&)
    in file probes/probes.C at line 152
    Location (0 0 0.05) seems to be on multiple domains: cell 5820 on my domain 0 and face 5821 on some other domain.
This might happen if the probe location is on a processor patch. Change the location slightly to prevent this.
Time = 0.001

Courant Number mean: 0.001 max: 0.001

 Coupling...
Starting up LIGGGHTS
Executing command: 'run 100    '
Setting up run at Tue Mar  7 10:02:17 2023

Memory usage per processor = 7.05667 Mbytes
    Step    Atoms 
  350000     1400 
  350100     1400 
Loop time of 0.0395805 on 4 procs for 100 steps with 1400 atoms, finish time Tue Mar  7 10:02:17 2023


Pair  time (%) = 0.0150338 (37.9829)
Neigh time (%) = 0 (0)
Comm  time (%) = 0.00110641 (2.79535)
Outpt time (%) = 0.000210316 (0.531364)
Other time (%) = 0.0232299 (58.6904)

Nlocal:    350 ave 806 max 0 min
Histogram: 2 0 0 0 0 0 0 1 0 1
Nghost:    564.5 ave 1198 max 0 min
Histogram: 2 0 0 0 0 0 0 0 1 1
Neighs:    8424.5 ave 19130 max 0 min
Histogram: 2 0 0 0 0 0 0 1 0 1

Total # of neighbors = 33698
Ave neighs/atom = 24.07
Neighbor list builds = 0
Dangerous builds = 0
LIGGGHTS finished

 timeStepFraction() = 1
[1] cellI = 1016
[1] index = 0
[1] Us = (-4.32424e-10 4.69496e-10 9.76539e-12)
[1] Ur = (4.32424e-10 -4.69496e-10 -0.001)
[1] dprim = 0.001
[1] phi = 1
[1] rho = 1000
[1] nuf = 1e-06
[1] voidfraction = 0.491483
[1] Rep = 0
[3] cellI = 1003
[3] index = 1
[3] Us = (-4.02215e-10 4.46213e-10 -1.50014e-11)
[3] Ur = (4.02215e-10 -4.46213e-10 -0.001)
[3] dprim = 0.001
[3] phi = 1
[3] rho = 1000
[3] nuf = 1e-06
[3] voidfraction = 0.480093
[3] Rep = 0
[3] betaP = 164190
[3] drag = (3.45782e-14 -3.83608e-14 -8.59695e-08)
[1] betaP = 156949
[1] drag = (3.55358e-14 -3.85823e-14 -8.21781e-08)

Solver level total Eulerian momentum exchange:
  TotalForceImp:  (-6.28865e-10 3.31273e-11 0.000182309)
  Warning, these values are based on latest Ksl and Us but prev. iteration U!

DILUPBiCG:  Solving for Ux, Initial residual = 1, Final residual = 0.000297968, No Iterations 1
DILUPBiCG:  Solving for Uy, Initial residual = 1, Final residual = 0.000168551, No Iterations 1
DILUPBiCG:  Solving for Uz, Initial residual = 1, Final residual = 0.000357159, No Iterations 1
DICPCG:  Solving for p, Initial residual = 1, Final residual = 0.0539326, No Iterations 70
DICPCG:  Solving for p, Initial residual = 0.00180196, Final residual = 0.000156757, No Iterations 5
time step continuity errors : sum local = 1.12718e-07, global = -2.63124e-10, cumulative = -2.63124e-10
DICPCG:  Solving for p, Initial residual = 0.000293747, Final residual = 1.86031e-05, No Iterations 69
DICPCG:  Solving for p, Initial residual = 1.86724e-05, Final residual = 1.38806e-06, No Iterations 6
time step continuity errors : sum local = 9.93124e-10, global = 1.20369e-11, cumulative = -2.51087e-10
DICPCG:  Solving for p, Initial residual = 1.52108e-06, Final residual = 8.23212e-07, No Iterations 1
DICPCG:  Solving for p, Initial residual = 8.23212e-07, Final residual = 8.23212e-07, No Iterations 0
time step continuity errors : sum local = 5.88979e-10, global = 1.28732e-11, cumulative = -2.38214e-10
DICPCG:  Solving for p, Initial residual = 8.23243e-07, Final residual = 8.23243e-07, No Iterations 0
DICPCG:  Solving for p, Initial residual = 8.23243e-07, Final residual = 8.23243e-07, No Iterations 0
time step continuity errors : sum local = 5.89001e-10, global = 1.28786e-11, cumulative = -2.25335e-10
ExecutionTime = 0.11 s  ClockTime = 0 s

Time = 0.002

Courant Number mean: 0.0010214 max: 0.00221122

 Coupling...
Starting up LIGGGHTS
Executing command: 'run 100    '
Setting up run at Tue Mar  7 10:02:17 2023

Memory usage per processor = 7.05667 Mbytes
    Step    Atoms 
  350100     1400 
  350200     1400 
Loop time of 0.0403215 on 4 procs for 100 steps with 1400 atoms, finish time Tue Mar  7 10:02:17 2023


Pair  time (%) = 0.0151393 (37.5464)
Neigh time (%) = 0 (0)
Comm  time (%) = 0.00111052 (2.75417)
Outpt time (%) = 0.000208022 (0.515909)
Other time (%) = 0.0238637 (59.1835)

Nlocal:    350 ave 806 max 0 min
Histogram: 2 0 0 0 0 0 0 1 0 1
Nghost:    564.5 ave 1198 max 0 min
Histogram: 2 0 0 0 0 0 0 0 1 1
Neighs:    8424.5 ave 19130 max 0 min
Histogram: 2 0 0 0 0 0 0 1 0 1

Total # of neighbors = 33698
Ave neighs/atom = 24.07
Neighbor list builds = 0
Dangerous builds = 0
LIGGGHTS finished

 timeStepFraction() = 1
[3] cellI = 1003
[3] index = 1
[3] Us = (-1.2849e-06 -4.12754e-06 -1.03645e-05)
[3] Ur = (-5.87675e-06 2.40221e-05 -0.00191227)
[3] dprim = 0.001
[3] phi = 1
[1] cellI = 1016
[1] index = 0
[1] Us = (2.04943e-07 1.5564e-06 -9.65056e-06)
[1] Ur = (-6.7351e-05 -7.43159e-05 -0.00174295)
[1] dprim = 0.001
[1] phi = 1
[1] rho = 1000
[1] nuf = 1e-06
[3] rho = 1000
[3] nuf = 1e-06
[3] voidfraction = 0.480095
[3] Rep = 0
[1] voidfraction = 0.491486
[1] Rep = 0
[1] betaP = 158252
[3] betaP = 165785
[3] drag = (-5.10129e-10 2.08523e-09 -1.65994e-07)
[1] drag = (-5.58074e-09 -6.15786e-09 -1.44422e-07)

Solver level total Eulerian momentum exchange:
  TotalForceImp:  (-2.26547e-06 -3.49948e-06 0.000425091)
  Warning, these values are based on latest Ksl and Us but prev. iteration U!

DILUPBiCG:  Solving for Ux, Initial residual = 0.263931, Final residual = 0.00010263, No Iterations 1
DILUPBiCG:  Solving for Uy, Initial residual = 0.25733, Final residual = 9.9349e-05, No Iterations 1
DILUPBiCG:  Solving for Uz, Initial residual = 0.146839, Final residual = 6.04918e-05, No Iterations 1
DICPCG:  Solving for p, Initial residual = 0.0276277, Final residual = 0.00231634, No Iterations 69
DICPCG:  Solving for p, Initial residual = 0.0055284, Final residual = 0.000347236, No Iterations 5
time step continuity errors : sum local = 1.03878e-07, global = 5.14386e-10, cumulative = 2.89051e-10
DICPCG:  Solving for p, Initial residual = 0.00064436, Final residual = 4.35765e-05, No Iterations 69
DICPCG:  Solving for p, Initial residual = 4.32813e-05, Final residual = 3.39871e-06, No Iterations 6
time step continuity errors : sum local = 1.0195e-09, global = -1.9196e-11, cumulative = 2.69855e-10
DICPCG:  Solving for p, Initial residual = 3.71857e-06, Final residual = 9.58926e-07, No Iterations 4
DICPCG:  Solving for p, Initial residual = 9.58927e-07, Final residual = 9.58927e-07, No Iterations 0
time step continuity errors : sum local = 2.87637e-10, global = -1.22138e-11, cumulative = 2.57641e-10
DICPCG:  Solving for p, Initial residual = 9.62991e-07, Final residual = 9.62991e-07, No Iterations 0
DICPCG:  Solving for p, Initial residual = 9.62991e-07, Final residual = 9.62991e-07, No Iterations 0
time step continuity errors : sum local = 2.88856e-10, global = -1.21453e-11, cumulative = 2.45496e-10
ExecutionTime = 0.17 s  ClockTime = 0 s

Time = 0.003

Courant Number mean: 0.00102586 max: 0.0024916

 Coupling...
Starting up LIGGGHTS
Executing command: 'run 100    '
Setting up run at Tue Mar  7 10:02:17 2023

Memory usage per processor = 7.05667 Mbytes
    Step    Atoms 
  350200     1400 
  350300     1400 
Loop time of 0.039493 on 4 procs for 100 steps with 1400 atoms, finish time Tue Mar  7 10:02:17 2023


Pair  time (%) = 0.0149177 (37.7731)
Neigh time (%) = 0 (0)
Comm  time (%) = 0.00108288 (2.74196)
Outpt time (%) = 0.000206773 (0.523569)
Other time (%) = 0.0232856 (58.9614)

Nlocal:    350 ave 806 max 0 min
Histogram: 2 0 0 0 0 0 0 1 0 1
Nghost:    564.5 ave 1198 max 0 min
Histogram: 2 0 0 0 0 0 0 0 1 1
Neighs:    8424.5 ave 19130 max 0 min
Histogram: 2 0 0 0 0 0 0 1 0 1

Total # of neighbors = 33698
Ave neighs/atom = 24.07
Neighbor list builds = 0
Dangerous builds = 0
LIGGGHTS finished

 timeStepFraction() = 1
[1] cellI = 1016
[1] index = 0
[1] Us = (7.37452e-07 2.52523e-05 -0.000120215)
[1] Ur = (-7.6828e-05 -0.000100661 -0.00141524)
[1] dprim = 0.001
[1] phi = 1
[1] rho = 1000
[1] nuf = 1e-06
[1] voidfraction = 0.491522
[1] Rep = 0
[1] betaP = 157661
[1] drag = (-6.34224e-09 -8.30969e-09 -1.1683e-07)
[3] cellI = 1003
[3] index = 1
[3] Us = (-1.49589e-05 -4.18714e-05 -0.000127396)
[3] Ur = (-4.26915e-06 7.42766e-05 -0.00172523)
[3] dprim = 0.001
[3] phi = 1
[3] rho = 1000
[3] nuf = 1e-06
[3] voidfraction = 0.480129
[3] Rep = 0
[3] betaP = 165438
[3] drag = (-3.69807e-10 6.43406e-09 -1.49445e-07)

Solver level total Eulerian momentum exchange:
  TotalForceImp:  (1.00578e-06 -2.06319e-06 0.000238519)
  Warning, these values are based on latest Ksl and Us but prev. iteration U!

DILUPBiCG:  Solving for Ux, Initial residual = 0.124188, Final residual = 4.35901e-05, No Iterations 1
DILUPBiCG:  Solving for Uy, Initial residual = 0.122125, Final residual = 4.16807e-05, No Iterations 1
DILUPBiCG:  Solving for Uz, Initial residual = 0.0434888, Final residual = 1.86486e-05, No Iterations 1
DICPCG:  Solving for p, Initial residual = 0.0222142, Final residual = 0.00171459, No Iterations 69
DICPCG:  Solving for p, Initial residual = 0.00264942, Final residual = 0.000219236, No Iterations 6
time step continuity errors : sum local = 4.22106e-08, global = 5.20772e-10, cumulative = 7.66268e-10
DICPCG:  Solving for p, Initial residual = 0.000329191, Final residual = 2.93455e-05, No Iterations 66
DICPCG:  Solving for p, Initial residual = 2.92749e-05, Final residual = 2.70052e-06, No Iterations 6
time step continuity errors : sum local = 5.2024e-10, global = -1.02609e-11, cumulative = 7.56007e-10
DICPCG:  Solving for p, Initial residual = 2.85144e-06, Final residual = 7.35011e-07, No Iterations 4
DICPCG:  Solving for p, Initial residual = 7.35012e-07, Final residual = 7.35012e-07, No Iterations 0
time step continuity errors : sum local = 1.41593e-10, global = -1.38958e-11, cumulative = 7.42111e-10
DICPCG:  Solving for p, Initial residual = 7.37379e-07, Final residual = 7.37379e-07, No Iterations 0
DICPCG:  Solving for p, Initial residual = 7.37379e-07, Final residual = 7.37379e-07, No Iterations 0
time step continuity errors : sum local = 1.4205e-10, global = -1.39155e-11, cumulative = 7.28196e-10
ExecutionTime = 0.23 s  ClockTime = 0 s

Time = 0.004

Courant Number mean: 0.00102653 max: 0.00261817

 Coupling...
Starting up LIGGGHTS
Executing command: 'run 100    '
Setting up run at Tue Mar  7 10:02:17 2023

Memory usage per processor = 7.05667 Mbytes
    Step    Atoms 
  350300     1400 
  350400     1400 
Loop time of 0.0395288 on 4 procs for 100 steps with 1400 atoms, finish time Tue Mar  7 10:02:17 2023


Pair  time (%) = 0.0149276 (37.7638)
Neigh time (%) = 0 (0)
Comm  time (%) = 0.00107512 (2.71984)
Outpt time (%) = 0.000208035 (0.526288)
Other time (%) = 0.023318 (58.9901)

Nlocal:    350 ave 806 max 0 min
Histogram: 2 0 0 0 0 0 0 1 0 1
Nghost:    564.75 ave 1198 max 0 min
Histogram: 2 0 0 0 0 0 0 0 1 1
Neighs:    8424.5 ave 19130 max 0 min
Histogram: 2 0 0 0 0 0 0 1 0 1

Total # of neighbors = 33698
Ave neighs/atom = 24.07
Neighbor list builds = 0
Dangerous builds = 0
LIGGGHTS finished

 timeStepFraction() = 1
[3] cellI = 1003
[3] index = 1
[3] Us = (4.54446e-06 1.03813e-05 -6.11354e-06)
[3] Ur = (-5.35215e-05 1.39601e-05 -0.00185442)
[3] dprim = 0.001
[3] phi = 1
[3] rho = 1000
[3] nuf = 1e-06
[3] voidfraction = 0.480138
[3] Rep = 0
[3] betaP = 165657
[3] drag = (-4.64234e-09 1.21087e-09 -1.60849e-07)
[1] cellI = 1016
[1] index = 0
[1] Us = (-3.55722e-07 3.42936e-06 -6.85398e-06)
[1] Ur = (-6.38863e-05 -7.53036e-05 -0.00134147)
[1] dprim = 0.001
[1] phi = 1
[1] rho = 1000
[1] nuf = 1e-06
[1] voidfraction = 0.491531
[1] Rep = 0
[1] betaP = 157523
[1] drag = (-5.26926e-09 -6.21094e-09 -1.10643e-07)

Solver level total Eulerian momentum exchange:
  TotalForceImp:  (-6.69995e-07 -2.83489e-06 0.000366655)
  Warning, these values are based on latest Ksl and Us but prev. iteration U!

DILUPBiCG:  Solving for Ux, Initial residual = 0.072456, Final residual = 2.85042e-05, No Iterations 1
DILUPBiCG:  Solving for Uy, Initial residual = 0.0706882, Final residual = 2.44979e-05, No Iterations 1
DILUPBiCG:  Solving for Uz, Initial residual = 0.034558, Final residual = 1.16316e-05, No Iterations 1
DICPCG:  Solving for p, Initial residual = 0.0283123, Final residual = 0.00193789, No Iterations 70
DICPCG:  Solving for p, Initial residual = 0.00142295, Final residual = 0.000120452, No Iterations 5
time step continuity errors : sum local = 3.17191e-08, global = -1.91214e-10, cumulative = 5.36982e-10
DICPCG:  Solving for p, Initial residual = 0.000177555, Final residual = 1.42997e-05, No Iterations 69
DICPCG:  Solving for p, Initial residual = 1.43185e-05, Final residual = 9.27475e-07, No Iterations 7
time step continuity errors : sum local = 2.43697e-10, global = -3.12878e-14, cumulative = 5.36951e-10
DICPCG:  Solving for p, Initial residual = 9.67455e-07, Final residual = 9.67455e-07, No Iterations 0
DICPCG:  Solving for p, Initial residual = 9.67455e-07, Final residual = 9.67455e-07, No Iterations 0
time step continuity errors : sum local = 2.54199e-10, global = 9.32959e-13, cumulative = 5.37884e-10
DICPCG:  Solving for p, Initial residual = 9.67986e-07, Final residual = 9.67986e-07, No Iterations 0
DICPCG:  Solving for p, Initial residual = 9.67986e-07, Final residual = 9.67986e-07, No Iterations 0
time step continuity errors : sum local = 2.54339e-10, global = 9.38197e-13, cumulative = 5.38822e-10
ExecutionTime = 0.28 s  ClockTime = 0 s

Time = 0.005

Courant Number mean: 0.00102967 max: 0.00287151

 Coupling...
Starting up LIGGGHTS
Executing command: 'run 100    '
Setting up run at Tue Mar  7 10:02:17 2023

Memory usage per processor = 7.05667 Mbytes
    Step    Atoms 
  350400     1400 
  350500     1400 
Loop time of 0.0377674 on 4 procs for 100 steps with 1400 atoms, finish time Tue Mar  7 10:02:17 2023


Pair  time (%) = 0.0145449 (38.5118)
Neigh time (%) = 0 (0)
Comm  time (%) = 0.00105293 (2.78793)
Outpt time (%) = 0.000205565 (0.544293)
Other time (%) = 0.021964 (58.156)

Nlocal:    350 ave 806 max 0 min
Histogram: 2 0 0 0 0 0 0 1 0 1
Nghost:    564.75 ave 1198 max 0 min
Histogram: 2 0 0 0 0 0 0 0 1 1
Neighs:    8425.25 ave 19133 max 0 min
Histogram: 2 0 0 0 0 0 0 1 0 1

Total # of neighbors = 33701
Ave neighs/atom = 24.0721
Neighbor list builds = 0
Dangerous builds = 0
LIGGGHTS finished

 timeStepFraction() = 1
[1] cellI = 1016
[1] index = 0
[1] Us = (2.15761e-06 -7.51172e-06 1.32483e-05)
[1] Ur = (-7.14701e-05 -5.82031e-05 -0.0011863)
[1] dprim = 0.001
[1] phi = 1
[1] rho = 1000
[1] nuf = 1e-06
[1] voidfraction = 0.491529
[1] Rep = 0
[1] betaP = 157252
[1] drag = (-5.88464e-09 -4.79227e-09 -9.76762e-08)
[3] cellI = 1003
[3] index = 1
[3] Us = (2.46403e-06 -9.97392e-06 1.41363e-05)
[3] Ur = (-4.62083e-05 5.11239e-05 -0.00179327)
[3] dprim = 0.001
[3] phi = 1
[3] rho = 1000
[3] nuf = 1e-06
[3] voidfraction = 0.48014
[3] Rep = 0
[3] betaP = 165549
[3] drag = (-4.0054e-09 4.43149e-09 -1.55443e-07)

Solver level total Eulerian momentum exchange:
  TotalForceImp:  (-3.03822e-06 -7.71247e-06 0.000482799)
  Warning, these values are based on latest Ksl and Us but prev. iteration U!

DILUPBiCG:  Solving for Ux, Initial residual = 0.0641039, Final residual = 2.83029e-05, No Iterations 1
DILUPBiCG:  Solving for Uy, Initial residual = 0.0631637, Final residual = 2.18737e-05, No Iterations 1
DILUPBiCG:  Solving for Uz, Initial residual = 0.0400146, Final residual = 1.40973e-05, No Iterations 1
DICPCG:  Solving for p, Initial residual = 0.0204955, Final residual = 0.00159909, No Iterations 70
DICPCG:  Solving for p, Initial residual = 0.00132713, Final residual = 0.000124925, No Iterations 5
time step continuity errors : sum local = 3.99781e-08, global = -4.48685e-10, cumulative = 9.01367e-11
DICPCG:  Solving for p, Initial residual = 0.000170233, Final residual = 9.86132e-06, No Iterations 70
DICPCG:  Solving for p, Initial residual = 9.86902e-06, Final residual = 6.68428e-07, No Iterations 6
time step continuity errors : sum local = 2.13559e-10, global = 5.6024e-12, cumulative = 9.57391e-11
DICPCG:  Solving for p, Initial residual = 8.22986e-07, Final residual = 8.22986e-07, No Iterations 0
DICPCG:  Solving for p, Initial residual = 8.22986e-07, Final residual = 8.22986e-07, No Iterations 0
time step continuity errors : sum local = 2.62938e-10, global = 7.08291e-12, cumulative = 1.02822e-10
DICPCG:  Solving for p, Initial residual = 8.24185e-07, Final residual = 8.24185e-07, No Iterations 0
DICPCG:  Solving for p, Initial residual = 8.24185e-07, Final residual = 8.24185e-07, No Iterations 0
time step continuity errors : sum local = 2.63321e-10, global = 7.09092e-12, cumulative = 1.09913e-10
ExecutionTime = 0.34 s  ClockTime = 0 s

Time = 0.006

Courant Number mean: 0.00103406 max: 0.00311828

 Coupling...
Starting up LIGGGHTS
Executing command: 'run 100    '
Setting up run at Tue Mar  7 10:02:17 2023

Memory usage per processor = 7.05667 Mbytes
    Step    Atoms 
  350500     1400 
  350600     1400 
Loop time of 0.0379688 on 4 procs for 100 steps with 1400 atoms, finish time Tue Mar  7 10:02:17 2023


Pair  time (%) = 0.0146021 (38.4581)
Neigh time (%) = 0 (0)
Comm  time (%) = 0.00105529 (2.77935)
Outpt time (%) = 0.000209339 (0.551345)
Other time (%) = 0.0221021 (58.2112)

Nlocal:    350 ave 806 max 0 min
Histogram: 2 0 0 0 0 0 0 1 0 1
Nghost:    564.75 ave 1198 max 0 min
Histogram: 2 0 0 0 0 0 0 0 1 1
Neighs:    8425 ave 19132 max 0 min
Histogram: 2 0 0 0 0 0 0 1 0 1

Total # of neighbors = 33700
Ave neighs/atom = 24.0714
Neighbor list builds = 0
Dangerous builds = 0
LIGGGHTS finished

 timeStepFraction() = 1
[3] cellI = 1003
[3] index = 1
[3] Us = (5.53621e-06 3.75804e-05 0.000117791)
[3] Ur = (-5.09533e-05 8.77006e-06 -0.00183864)
[3] dprim = 0.001
[3] phi = 1
[3] rho = 1000
[3] nuf = 1e-06
[3] voidfraction = 0.480121
[3] Rep = 0
[3] betaP = 165640
[3] drag = (-4.41912e-09 7.60617e-10 -1.59463e-07)
[1] cellI = 1016
[1] index = 0
[1] Us = (-5.62397e-07 -1.7464e-05 0.000110151)
[1] Ur = (-6.85278e-05 -5.21289e-05 -0.00113429)
[1] dprim = 0.001
[1] phi = 1
[1] rho = 1000
[1] nuf = 1e-06
[1] voidfraction = 0.491511
[1] Rep = 0
[1] betaP = 157172
[1] drag = (-5.63951e-09 -4.28995e-09 -9.33466e-08)

Solver level total Eulerian momentum exchange:
  TotalForceImp:  (-6.91179e-06 -3.43313e-06 0.000533471)
  Warning, these values are based on latest Ksl and Us but prev. iteration U!

DILUPBiCG:  Solving for Ux, Initial residual = 0.0620953, Final residual = 2.40456e-05, No Iterations 1
DILUPBiCG:  Solving for Uy, Initial residual = 0.0615466, Final residual = 2.39424e-05, No Iterations 1
DILUPBiCG:  Solving for Uz, Initial residual = 0.0361491, Final residual = 1.35963e-05, No Iterations 1
DICPCG:  Solving for p, Initial residual = 0.0114403, Final residual = 0.000662049, No Iterations 70
DICPCG:  Solving for p, Initial residual = 0.000604334, Final residual = 5.30206e-05, No Iterations 5
time step continuity errors : sum local = 1.86992e-08, global = 1.95144e-12, cumulative = 1.11864e-10
DICPCG:  Solving for p, Initial residual = 6.95097e-05, Final residual = 6.47326e-06, No Iterations 69
DICPCG:  Solving for p, Initial residual = 6.47555e-06, Final residual = 8.52953e-07, No Iterations 5
time step continuity errors : sum local = 3.00602e-10, global = 1.40629e-12, cumulative = 1.13271e-10
DICPCG:  Solving for p, Initial residual = 9.18357e-07, Final residual = 9.18357e-07, No Iterations 0
DICPCG:  Solving for p, Initial residual = 9.18357e-07, Final residual = 9.18357e-07, No Iterations 0
time step continuity errors : sum local = 3.23651e-10, global = 1.51127e-12, cumulative = 1.14782e-10
DICPCG:  Solving for p, Initial residual = 9.18809e-07, Final residual = 9.18809e-07, No Iterations 0
DICPCG:  Solving for p, Initial residual = 9.18809e-07, Final residual = 9.18809e-07, No Iterations 0
time step continuity errors : sum local = 3.2381e-10, global = 1.51223e-12, cumulative = 1.16294e-10
ExecutionTime = 0.4 s  ClockTime = 0 s

Time = 0.007

Courant Number mean: 0.00103875 max: 0.00338361

 Coupling...
Starting up LIGGGHTS
Executing command: 'run 100    '
Setting up run at Tue Mar  7 10:02:17 2023

Memory usage per processor = 7.05667 Mbytes
    Step    Atoms 
  350600     1400 
  350700     1400 
Loop time of 0.0377516 on 4 procs for 100 steps with 1400 atoms, finish time Tue Mar  7 10:02:17 2023


Pair  time (%) = 0.0145399 (38.5148)
Neigh time (%) = 0 (0)
Comm  time (%) = 0.00105836 (2.8035)
Outpt time (%) = 0.000204996 (0.543012)
Other time (%) = 0.0219483 (58.1387)

Nlocal:    350 ave 806 max 0 min
Histogram: 2 0 0 0 0 0 0 1 0 1
Nghost:    564.75 ave 1198 max 0 min
Histogram: 2 0 0 0 0 0 0 0 1 1
Neighs:    8424.25 ave 19129 max 0 min
Histogram: 2 0 0 0 0 0 0 1 0 1

Total # of neighbors = 33697
Ave neighs/atom = 24.0693
Neighbor list builds = 0
Dangerous builds = 0
LIGGGHTS finished

 timeStepFraction() = 1
[1] cellI = 1016
[1] index = 0
[1] Us = (-3.86569e-06 3.61302e-06 3.22815e-05)
[1] Ur = (-6.98836e-05 -7.43147e-05 -0.000920371)
[1] dprim = 0.001
[1] phi = 1
[1] rho = 1000
[1] nuf = 1e-06
[1] voidfraction = 0.491485
[1] Rep = 0
[1] betaP = 156818
[1] drag = (-5.73812e-09 -6.10195e-09 -7.55714e-08)
[3] cellI = 1003
[3] index = 1
[3] Us = (-3.84016e-07 1.73047e-05 2.80308e-05)
[3] Ur = (-4.36092e-05 4.54742e-05 -0.00168961)
[3] dprim = 0.001
[3] phi = 1
[3] rho = 1000
[3] nuf = 1e-06
[3] voidfraction = 0.480095
[3] Rep = 0
[3] betaP = 165397
[3] drag = (-3.77663e-09 3.93814e-09 -1.46323e-07)

Solver level total Eulerian momentum exchange:
  TotalForceImp:  (-3.94047e-06 -3.15522e-06 0.000366757)
  Warning, these values are based on latest Ksl and Us but prev. iteration U!

DILUPBiCG:  Solving for Ux, Initial residual = 0.0732561, Final residual = 2.30897e-05, No Iterations 1
DILUPBiCG:  Solving for Uy, Initial residual = 0.0756348, Final residual = 2.14402e-05, No Iterations 1
DILUPBiCG:  Solving for Uz, Initial residual = 0.0287751, Final residual = 1.01768e-05, No Iterations 1
DICPCG:  Solving for p, Initial residual = 0.0152166, Final residual = 0.00107693, No Iterations 68
DICPCG:  Solving for p, Initial residual = 0.00122745, Final residual = 0.000116156, No Iterations 8
time step continuity errors : sum local = 3.59885e-08, global = -4.39528e-10, cumulative = -3.23233e-10
DICPCG:  Solving for p, Initial residual = 0.000149764, Final residual = 1.4957e-05, No Iterations 47
DICPCG:  Solving for p, Initial residual = 1.49585e-05, Final residual = 9.91157e-07, No Iterations 67
time step continuity errors : sum local = 3.068e-10, global = 1.89217e-12, cumulative = -3.21341e-10
DICPCG:  Solving for p, Initial residual = 1.12847e-06, Final residual = 7.46129e-07, No Iterations 1
DICPCG:  Solving for p, Initial residual = 7.46129e-07, Final residual = 7.46129e-07, No Iterations 0
time step continuity errors : sum local = 2.31095e-10, global = 2.91982e-12, cumulative = -3.18421e-10
DICPCG:  Solving for p, Initial residual = 7.46454e-07, Final residual = 7.46454e-07, No Iterations 0
DICPCG:  Solving for p, Initial residual = 7.46454e-07, Final residual = 7.46454e-07, No Iterations 0
time step continuity errors : sum local = 2.31196e-10, global = 2.92354e-12, cumulative = -3.15498e-10
ExecutionTime = 0.46 s  ClockTime = 0 s

Time = 0.008

Courant Number mean: 0.00104204 max: 0.0035618

 Coupling...
Starting up LIGGGHTS
Executing command: 'run 100    '
Setting up run at Tue Mar  7 10:02:17 2023

Memory usage per processor = 7.05667 Mbytes
    Step    Atoms 
  350700     1400 
  350800     1400 
Loop time of 0.0393776 on 4 procs for 100 steps with 1400 atoms, finish time Tue Mar  7 10:02:17 2023


Pair  time (%) = 0.0148752 (37.7758)
Neigh time (%) = 0 (0)
Comm  time (%) = 0.00107775 (2.73697)
Outpt time (%) = 0.000206084 (0.523354)
Other time (%) = 0.0232186 (58.9639)

Nlocal:    350 ave 806 max 0 min
Histogram: 2 0 0 0 0 0 0 1 0 1
Nghost:    564.5 ave 1198 max 0 min
Histogram: 2 0 0 0 0 0 0 0 1 1
Neighs:    8424.5 ave 19130 max 0 min
Histogram: 2 0 0 0 0 0 0 1 0 1

Total # of neighbors = 33698
Ave neighs/atom = 24.07
Neighbor list builds = 0
Dangerous builds = 0
LIGGGHTS finished

 timeStepFraction() = 1
[3] cellI = 1003
[3] index = 1
[3] Us = (-3.78644e-06 -2.54229e-05 -5.43794e-05)
[3] Ur = (-4.80204e-05 9.14598e-05 -0.00157835)
[3] dprim = 0.001
[3] phi = 1
[3] rho = 1000
[1] cellI = 1016
[1] index = 0
[1] Us = (4.12181e-06 1.37217e-06 -5.12094e-05)
[1] Ur = (-7.91041e-05 -6.54133e-05 -0.000750282)
[1] dprim = 0.001
[1] phi = 1
[1] rho = 1000
[1] nuf = 1e-06
[1] voidfraction = 0.49149
[1] Rep = 0
[3] nuf = 1e-06
[3] voidfraction = 0.480101
[3] Rep = 0
[3] betaP = 165202
[3] drag = (-4.15375e-09 7.91123e-09 -1.36526e-07)
[1] betaP = 156519
[1] drag = (-6.48285e-09 -5.36084e-09 -6.14882e-08)

Solver level total Eulerian momentum exchange:
  TotalForceImp:  (-1.45687e-06 -1.50776e-05 0.000222414)
  Warning, these values are based on latest Ksl and Us but prev. iteration U!

DILUPBiCG:  Solving for Ux, Initial residual = 0.0640096, Final residual = 2.26842e-05, No Iterations 1
DILUPBiCG:  Solving for Uy, Initial residual = 0.064706, Final residual = 2.127e-05, No Iterations 1
DILUPBiCG:  Solving for Uz, Initial residual = 0.0383016, Final residual = 1.53245e-05, No Iterations 1
DICPCG:  Solving for p, Initial residual = 0.0259156, Final residual = 0.0025761, No Iterations 65
DICPCG:  Solving for p, Initial residual = 0.00387409, Final residual = 0.000332186, No Iterations 9
time step continuity errors : sum local = 6.75836e-08, global = 1.62114e-09, cumulative = 1.30564e-09
DICPCG:  Solving for p, Initial residual = 0.000427302, Final residual = 3.91982e-05, No Iterations 43
DICPCG:  Solving for p, Initial residual = 3.92159e-05, Final residual = 3.10447e-06, No Iterations 68
time step continuity errors : sum local = 6.29509e-10, global = -1.06025e-11, cumulative = 1.29504e-09
DICPCG:  Solving for p, Initial residual = 3.31001e-06, Final residual = 7.97767e-07, No Iterations 4
DICPCG:  Solving for p, Initial residual = 7.97768e-07, Final residual = 7.97768e-07, No Iterations 0
time step continuity errors : sum local = 1.62024e-10, global = -1.35173e-11, cumulative = 1.28152e-09
DICPCG:  Solving for p, Initial residual = 7.99254e-07, Final residual = 7.99254e-07, No Iterations 0
DICPCG:  Solving for p, Initial residual = 7.99254e-07, Final residual = 7.99254e-07, No Iterations 0
time step continuity errors : sum local = 1.62326e-10, global = -1.35271e-11, cumulative = 1.26799e-09
ExecutionTime = 0.52 s  ClockTime = 0 s

Time = 0.009

Courant Number mean: 0.0010398 max: 0.00358899

 Coupling...
Starting up LIGGGHTS
Executing command: 'run 100    '
Setting up run at Tue Mar  7 10:02:17 2023

Memory usage per processor = 7.05667 Mbytes
    Step    Atoms 
  350800     1400 
  350900     1400 
Loop time of 0.0394008 on 4 procs for 100 steps with 1400 atoms, finish time Tue Mar  7 10:02:17 2023


Pair  time (%) = 0.014939 (37.9153)
Neigh time (%) = 0 (0)
Comm  time (%) = 0.00107087 (2.71788)
Outpt time (%) = 0.000205765 (0.522236)
Other time (%) = 0.0231853 (58.8446)

Nlocal:    350 ave 806 max 0 min
Histogram: 2 0 0 0 0 0 0 1 0 1
Nghost:    564.5 ave 1198 max 0 min
Histogram: 2 0 0 0 0 0 0 0 1 1
Neighs:    8424.5 ave 19130 max 0 min
Histogram: 2 0 0 0 0 0 0 1 0 1

Total # of neighbors = 33698
Ave neighs/atom = 24.07
Neighbor list builds = 0
Dangerous builds = 0
LIGGGHTS finished

 timeStepFraction() = 1
[1] cellI = 1016
[1] index = 0
[1] Us = (-1.89386e-06 7.05087e-06 -5.28435e-05)
[1] Ur = (-5.75126e-05 -6.86702e-05 -0.000705118)
[1] dprim = 0.001
[1] phi = 1
[1] rho = 1000
[1] nuf = 1e-06
[1] voidfraction = 0.491506
[1] Rep = 0
[1] betaP = 156429
[1] drag = (-4.71061e-09 -5.62448e-09 -5.77533e-08)
[3] cellI = 1003
[3] index = 1
[3] Us = (-6.22401e-06 -1.37119e-05 -5.4328e-05)
[3] Ur = (-5.28437e-05 7.85126e-05 -0.00154237)
[3] dprim = 0.001
[3] phi = 1
[3] rho = 1000
[3] nuf = 1e-06
[3] voidfraction = 0.480117
[3] Rep = 0
[3] betaP = 165128
[3] drag = (-4.56891e-09 6.78827e-09 -1.33354e-07)

Solver level total Eulerian momentum exchange:
  TotalForceImp:  (-6.45527e-06 -1.55908e-05 0.000228073)
  Warning, these values are based on latest Ksl and Us but prev. iteration U!

DILUPBiCG:  Solving for Ux, Initial residual = 0.0694203, Final residual = 1.65112e-05, No Iterations 1
DILUPBiCG:  Solving for Uy, Initial residual = 0.0688356, Final residual = 1.55195e-05, No Iterations 1
DILUPBiCG:  Solving for Uz, Initial residual = 0.0170183, Final residual = 4.3349e-06, No Iterations 1
DICPCG:  Solving for p, Initial residual = 0.0410604, Final residual = 0.00388559, No Iterations 41
DICPCG:  Solving for p, Initial residual = 0.00391549, Final residual = 0.000300568, No Iterations 65
time step continuity errors : sum local = 5.99273e-08, global = 1.2978e-09, cumulative = 2.56579e-09
DICPCG:  Solving for p, Initial residual = 0.000397644, Final residual = 3.76872e-05, No Iterations 23
DICPCG:  Solving for p, Initial residual = 3.76967e-05, Final residual = 2.89656e-06, No Iterations 67
time step continuity errors : sum local = 4.79267e-10, global = -1.4148e-11, cumulative = 2.55165e-09
DICPCG:  Solving for p, Initial residual = 3.26712e-06, Final residual = 8.23278e-07, No Iterations 4
DICPCG:  Solving for p, Initial residual = 8.23279e-07, Final residual = 8.23279e-07, No Iterations 0
time step continuity errors : sum local = 1.36348e-10, global = -6.27277e-13, cumulative = 2.55102e-09
DICPCG:  Solving for p, Initial residual = 8.24802e-07, Final residual = 8.24802e-07, No Iterations 0
DICPCG:  Solving for p, Initial residual = 8.24802e-07, Final residual = 8.24802e-07, No Iterations 0
time step continuity errors : sum local = 1.36601e-10, global = -5.68006e-13, cumulative = 2.55045e-09
ExecutionTime = 0.58 s  ClockTime = 0 s

Time = 0.01

Courant Number mean: 0.00103795 max: 0.00352663

 Coupling...
Starting up LIGGGHTS
Executing command: 'run 100    '
Setting up run at Tue Mar  7 10:02:17 2023

Memory usage per processor = 7.05667 Mbytes
    Step    Atoms 
  350900     1400 
  351000     1400 
Loop time of 0.044505 on 4 procs for 100 steps with 1400 atoms, finish time Tue Mar  7 10:02:17 2023


Pair  time (%) = 0.0148441 (33.3538)
Neigh time (%) = 0 (0)
Comm  time (%) = 0.00107606 (2.41784)
Outpt time (%) = 0.00551271 (12.3867)
Other time (%) = 0.0230721 (51.8416)

Nlocal:    350 ave 806 max 0 min
Histogram: 2 0 0 0 0 0 0 1 0 1
Nghost:    564.75 ave 1198 max 0 min
Histogram: 2 0 0 0 0 0 0 0 1 1
Neighs:    8424.25 ave 19129 max 0 min
Histogram: 2 0 0 0 0 0 0 1 0 1

Total # of neighbors = 33697
Ave neighs/atom = 24.0693
Neighbor list builds = 0
Dangerous builds = 0
Executing command: 'write_restart ../DEM/liggghts.restartCFDEM'
System init for write_restart ...
LIGGGHTS finished

 timeStepFraction() = 1
[3] cellI = 1003
[3] index = 1
[3] Us = (-3.13455e-06 -8.04382e-06 -3.16063e-05)
[3] Ur = (-7.76769e-05 7.7972e-05 -0.00157116)
[3] dprim = 0.001
[3] phi = 1
[3] rho = 1000
[3] nuf = 1e-06
[1] cellI = 1016
[1] index = 0
[1] Us = (6.17305e-07 7.4185e-06 -2.87105e-05)
[1] Ur = (-5.7129e-05 -6.31001e-05 -0.000689539)
[1] dprim = 0.001
[1] phi = 1
[1] rho = 1000
[1] nuf = 1e-06
[1] voidfraction = 0.49152
[1] Rep = 0
[3] voidfraction = 0.480129
[3] Rep = 0
[3] betaP = 165172
[3] drag = (-6.7178e-09 6.74332e-09 -1.3588e-07)
[1] betaP = 156392
[1] drag = (-4.6781e-09 -5.16705e-09 -5.6464e-08)

Solver level total Eulerian momentum exchange:
  TotalForceImp:  (-3.92971e-06 -3.73963e-06 0.000347204)
  Warning, these values are based on latest Ksl and Us but prev. iteration U!

DILUPBiCG:  Solving for Ux, Initial residual = 0.0608248, Final residual = 2.57518e-05, No Iterations 1
DILUPBiCG:  Solving for Uy, Initial residual = 0.056224, Final residual = 1.76646e-05, No Iterations 1
DILUPBiCG:  Solving for Uz, Initial residual = 0.0341403, Final residual = 1.17134e-05, No Iterations 1
DICPCG:  Solving for p, Initial residual = 0.0616514, Final residual = 0.00565868, No Iterations 69
DICPCG:  Solving for p, Initial residual = 0.00352995, Final residual = 0.000328479, No Iterations 6
time step continuity errors : sum local = 8.75519e-08, global = 1.65999e-09, cumulative = 4.21044e-09
DICPCG:  Solving for p, Initial residual = 0.00039456, Final residual = 3.46433e-05, No Iterations 44
DICPCG:  Solving for p, Initial residual = 3.46468e-05, Final residual = 2.96635e-06, No Iterations 58
time step continuity errors : sum local = 7.88793e-10, global = 2.64131e-12, cumulative = 4.21308e-09
DICPCG:  Solving for p, Initial residual = 3.40563e-06, Final residual = 8.1186e-07, No Iterations 14
DICPCG:  Solving for p, Initial residual = 8.11861e-07, Final residual = 8.11861e-07, No Iterations 0
time step continuity errors : sum local = 2.1559e-10, global = 1.06126e-11, cumulative = 4.2237e-09
DICPCG:  Solving for p, Initial residual = 8.13447e-07, Final residual = 8.13447e-07, No Iterations 0
DICPCG:  Solving for p, Initial residual = 8.13447e-07, Final residual = 8.13447e-07, No Iterations 0
time step continuity errors : sum local = 2.16011e-10, global = 1.06835e-11, cumulative = 4.23438e-09
ExecutionTime = 0.65 s  ClockTime = 0 s

Time = 0.011

Courant Number mean: 0.00104016 max: 0.00369203

 Coupling...
Starting up LIGGGHTS
Executing command: 'run 100    '
Setting up run at Tue Mar  7 10:02:17 2023

Memory usage per processor = 7.05667 Mbytes
    Step    Atoms 
  351000     1400 
  351100     1400 
Loop time of 0.039519 on 4 procs for 100 steps with 1400 atoms, finish time Tue Mar  7 10:02:17 2023


Pair  time (%) = 0.014876 (37.6428)
Neigh time (%) = 0 (0)
Comm  time (%) = 0.00107545 (2.72135)
Outpt time (%) = 0.000208382 (0.527296)
Other time (%) = 0.0233591 (59.1086)

Nlocal:    350 ave 806 max 0 min
Histogram: 2 0 0 0 0 0 0 1 0 1
Nghost:    564.75 ave 1198 max 0 min
Histogram: 2 0 0 0 0 0 0 0 1 1
Neighs:    8424.75 ave 19131 max 0 min
Histogram: 2 0 0 0 0 0 0 1 0 1

Total # of neighbors = 33699
Ave neighs/atom = 24.0707
Neighbor list builds = 0
Dangerous builds = 0
Executing command: 'write_restart ../DEM/liggghts.restartCFDEM'
System init for write_restart ...
LIGGGHTS finished

 timeStepFraction() = 1
[1] cellI = 1016
[1] index = 0
[1] Us = (-1.26195e-07 -6.91627e-06 4.6385e-05)
[1] Ur = (-6.15713e-05 -4.56636e-05 -0.00074256)
[1] dprim = 0.001
[1] phi = 1
[1] rho = 1000
[1] nuf = 1e-06
[1] voidfraction = 0.491517
[1] Rep = 0
[1] betaP = 156484
[1] drag = (-5.04484e-09 -3.74145e-09 -6.08417e-08)
[3] cellI = 1003
[3] index = 1
[3] Us = (5.82007e-06 1.38927e-05 5.09493e-05)
[3] Ur = (-9.0971e-05 5.00103e-05 -0.00162908)
[3] dprim = 0.001
[3] phi = 1
[3] rho = 1000
[3] nuf = 1e-06
[3] voidfraction = 0.480127
[3] Rep = 0
[3] betaP = 165274
[3] drag = (-7.87237e-09 4.32775e-09 -1.40976e-07)

Solver level total Eulerian momentum exchange:
  TotalForceImp:  (-6.46723e-06 -6.5884e-06 0.000450204)
  Warning, these values are based on latest Ksl and Us but prev. iteration U!

DILUPBiCG:  Solving for Ux, Initial residual = 0.0373257, Final residual = 1.89e-05, No Iterations 1
DILUPBiCG:  Solving for Uy, Initial residual = 0.0362839, Final residual = 1.32903e-05, No Iterations 1
DILUPBiCG:  Solving for Uz, Initial residual = 0.0265677, Final residual = 8.061e-06, No Iterations 1
DICPCG:  Solving for p, Initial residual = 0.0159894, Final residual = 0.00141347, No Iterations 69
DICPCG:  Solving for p, Initial residual = 0.001211, Final residual = 0.00010981, No Iterations 5
time step continuity errors : sum local = 3.44455e-08, global = -8.05811e-10, cumulative = 3.42857e-09
DICPCG:  Solving for p, Initial residual = 0.00013754, Final residual = 1.29102e-05, No Iterations 47
DICPCG:  Solving for p, Initial residual = 1.29109e-05, Final residual = 1.0917e-06, No Iterations 65
time step continuity errors : sum local = 3.4217e-10, global = -9.1447e-12, cumulative = 3.41942e-09
DICPCG:  Solving for p, Initial residual = 1.15634e-06, Final residual = 7.52167e-07, No Iterations 1
DICPCG:  Solving for p, Initial residual = 7.52167e-07, Final residual = 7.52167e-07, No Iterations 0
time step continuity errors : sum local = 2.35616e-10, global = -3.88832e-12, cumulative = 3.41554e-09
DICPCG:  Solving for p, Initial residual = 7.52146e-07, Final residual = 7.52146e-07, No Iterations 0
DICPCG:  Solving for p, Initial residual = 7.52146e-07, Final residual = 7.52146e-07, No Iterations 0
time step continuity errors : sum local = 2.35609e-10, global = -3.86082e-12, cumulative = 3.41168e-09
ExecutionTime = 0.72 s  ClockTime = 0 s

Time = 0.012

Courant Number mean: 0.00104326 max: 0.00388655

 Coupling...
Starting up LIGGGHTS
Executing command: 'run 100    '
Setting up run at Tue Mar  7 10:02:17 2023

Memory usage per processor = 7.05667 Mbytes
    Step    Atoms 
  351100     1400 
  351200     1400 
Loop time of 0.0419111 on 4 procs for 100 steps with 1400 atoms, finish time Tue Mar  7 10:02:17 2023


Pair  time (%) = 0.0154873 (36.9528)
Neigh time (%) = 0 (0)
Comm  time (%) = 0.0010863 (2.59192)
Outpt time (%) = 0.000208034 (0.496369)
Other time (%) = 0.0251295 (59.959)

Nlocal:    350 ave 806 max 0 min
Histogram: 2 0 0 0 0 0 0 1 0 1
Nghost:    564.75 ave 1198 max 0 min
Histogram: 2 0 0 0 0 0 0 0 1 1
Neighs:    8424.5 ave 19130 max 0 min
Histogram: 2 0 0 0 0 0 0 1 0 1

Total # of neighbors = 33698
Ave neighs/atom = 24.07
Neighbor list builds = 0
Dangerous builds = 0
Executing command: 'write_restart ../DEM/liggghts.restartCFDEM'
System init for write_restart ...
LIGGGHTS finished

 timeStepFraction() = 1
[3] cellI = 1003
[3] index = 1
[3] Us = (8.05551e-07 1.17776e-05 4.52963e-05)
[3] Ur = (-7.96721e-05 5.46123e-05 -0.00159247)
[3] dprim = 0.001
[3] phi = 1
[3] rho = 1000
[3] nuf = 1e-06
[3] voidfraction = 0.480111
[3] Rep = 0
[3] betaP = 165219
[3] drag = (-6.89233e-09 4.72444e-09 -1.37763e-07)
[1] cellI = 1016
[1] index = 0
[1] Us = (-3.12448e-06 -7.33628e-06 4.38726e-05)
[1] Ur = (-6.37225e-05 -4.69789e-05 -0.000704698)
[1] dprim = 0.001
[1] phi = 1
[1] rho = 1000
[1] nuf = 1e-06
[1] voidfraction = 0.491503
[1] Rep = 0
[1] betaP = 156427
[1] drag = (-5.2192e-09 -3.84781e-09 -5.77183e-08)

Solver level total Eulerian momentum exchange:
  TotalForceImp:  (-5.21581e-06 -9.94863e-06 0.000448624)
  Warning, these values are based on latest Ksl and Us but prev. iteration U!

DILUPBiCG:  Solving for Ux, Initial residual = 0.0375491, Final residual = 1.56173e-05, No Iterations 1
DILUPBiCG:  Solving for Uy, Initial residual = 0.0366635, Final residual = 1.10301e-05, No Iterations 1
DILUPBiCG:  Solving for Uz, Initial residual = 0.0198467, Final residual = 6.48248e-06, No Iterations 1
DICPCG:  Solving for p, Initial residual = 0.0111651, Final residual = 0.00100861, No Iterations 2
DICPCG:  Solving for p, Initial residual = 0.00100024, Final residual = 9.63306e-05, No Iterations 10
time step continuity errors : sum local = 3.06076e-08, global = -6.761e-13, cumulative = 3.411e-09
DICPCG:  Solving for p, Initial residual = 9.81072e-05, Final residual = 9.64657e-06, No Iterations 25
DICPCG:  Solving for p, Initial residual = 9.64722e-06, Final residual = 8.24522e-07, No Iterations 31
time step continuity errors : sum local = 2.61883e-10, global = 5.29757e-11, cumulative = 3.46398e-09
DICPCG:  Solving for p, Initial residual = 1.00593e-06, Final residual = 8.71509e-07, No Iterations 1
DICPCG:  Solving for p, Initial residual = 8.71509e-07, Final residual = 8.71509e-07, No Iterations 0
time step continuity errors : sum local = 2.76798e-10, global = 5.25535e-11, cumulative = 3.51653e-09
DICPCG:  Solving for p, Initial residual = 8.72305e-07, Final residual = 8.72305e-07, No Iterations 0
DICPCG:  Solving for p, Initial residual = 8.72305e-07, Final residual = 8.72305e-07, No Iterations 0
time step continuity errors : sum local = 2.77051e-10, global = 5.25502e-11, cumulative = 3.56908e-09
ExecutionTime = 0.78 s  ClockTime = 0 s

Time = 0.013

Courant Number mean: 0.00104619 max: 0.00409495

 Coupling...
Starting up LIGGGHTS
Executing command: 'run 100    '
Setting up run at Tue Mar  7 10:02:17 2023

Memory usage per processor = 7.05667 Mbytes
    Step    Atoms 
  351200     1400 
  351300     1400 
Loop time of 0.0397106 on 4 procs for 100 steps with 1400 atoms, finish time Tue Mar  7 10:02:17 2023


Pair  time (%) = 0.0149851 (37.7359)
Neigh time (%) = 0 (0)
Comm  time (%) = 0.00107719 (2.71261)
Outpt time (%) = 0.000207907 (0.523555)
Other time (%) = 0.0234403 (59.0279)

Nlocal:    350 ave 806 max 0 min
Histogram: 2 0 0 0 0 0 0 1 0 1
Nghost:    564.5 ave 1198 max 0 min
Histogram: 2 0 0 0 0 0 0 0 1 1
Neighs:    8424.25 ave 19129 max 0 min
Histogram: 2 0 0 0 0 0 0 1 0 1

Total # of neighbors = 33697
Ave neighs/atom = 24.0693
Neighbor list builds = 0
Dangerous builds = 0
Executing command: 'write_restart ../DEM/liggghts.restartCFDEM'
System init for write_restart ...
LIGGGHTS finished

 timeStepFraction() = 1
[1] cellI = 1016
[1] index = 0
[1] Us = (2.12501e-06 -4.03718e-06 8.0258e-06)
[1] Ur = (-7.21694e-05 -4.62469e-05 -0.00064809)
[1] dprim = 0.001
[1] phi = 1
[1] rho = 1000
[1] nuf = 1e-06
[1] voidfraction = 0.491495
[1] Rep = 0
[1] betaP = 156336
[1] drag = (-5.90758e-09 -3.78564e-09 -5.30508e-08)
[3] cellI = 1003
[3] index = 1
[3] Us = (2.53206e-06 2.24398e-06 9.24101e-06)
[3] Ur = (-6.99111e-05 6.70934e-05 -0.0015073)
[3] dprim = 0.001
[3] phi = 1
[3] rho = 1000
[3] nuf = 1e-06
[3] voidfraction = 0.480104
[3] Rep = 0
[3] betaP = 165076
[3] drag = (-6.04265e-09 5.79911e-09 -1.30281e-07)

Solver level total Eulerian momentum exchange:
  TotalForceImp:  (2.90984e-06 -1.13783e-05 0.000284413)
  Warning, these values are based on latest Ksl and Us but prev. iteration U!

DILUPBiCG:  Solving for Ux, Initial residual = 0.052855, Final residual = 1.56951e-05, No Iterations 1
DILUPBiCG:  Solving for Uy, Initial residual = 0.0491038, Final residual = 1.29558e-05, No Iterations 1
DILUPBiCG:  Solving for Uz, Initial residual = 0.0222661, Final residual = 6.68277e-06, No Iterations 1
DICPCG:  Solving for p, Initial residual = 0.0158152, Final residual = 0.00109333, No Iterations 69
DICPCG:  Solving for p, Initial residual = 0.00130889, Final residual = 0.000119775, No Iterations 6
time step continuity errors : sum local = 3.15916e-08, global = 2.39852e-10, cumulative = 3.80893e-09
DICPCG:  Solving for p, Initial residual = 0.000168248, Final residual = 1.5822e-05, No Iterations 67
DICPCG:  Solving for p, Initial residual = 1.58104e-05, Final residual = 9.65722e-07, No Iterations 8
time step continuity errors : sum local = 2.54686e-10, global = -1.58338e-11, cumulative = 3.7931e-09
DICPCG:  Solving for p, Initial residual = 1.09646e-06, Final residual = 6.83828e-07, No Iterations 1
DICPCG:  Solving for p, Initial residual = 6.83828e-07, Final residual = 6.83828e-07, No Iterations 0
time step continuity errors : sum local = 1.80342e-10, global = -1.68822e-11, cumulative = 3.77622e-09
DICPCG:  Solving for p, Initial residual = 6.84045e-07, Final residual = 6.84045e-07, No Iterations 0
DICPCG:  Solving for p, Initial residual = 6.84045e-07, Final residual = 6.84045e-07, No Iterations 0
time step continuity errors : sum local = 1.80399e-10, global = -1.68901e-11, cumulative = 3.75933e-09
ExecutionTime = 0.84 s  ClockTime = 0 s

Time = 0.014

Courant Number mean: 0.00104669 max: 0.00413115

 Coupling...
Starting up LIGGGHTS
Executing command: 'run 100    '
Setting up run at Tue Mar  7 10:02:17 2023

Memory usage per processor = 7.05667 Mbytes
    Step    Atoms 
  351300     1400 
  351400     1400 
Loop time of 0.0395632 on 4 procs for 100 steps with 1400 atoms, finish time Tue Mar  7 10:02:17 2023


Pair  time (%) = 0.0149562 (37.8033)
Neigh time (%) = 0 (0)
Comm  time (%) = 0.00107691 (2.72201)
Outpt time (%) = 0.000207741 (0.525087)
Other time (%) = 0.0233223 (58.9496)

Nlocal:    350 ave 806 max 0 min
Histogram: 2 0 0 0 0 0 0 1 0 1
Nghost:    564.5 ave 1198 max 0 min
Histogram: 2 0 0 0 0 0 0 0 1 1
Neighs:    8424.5 ave 19130 max 0 min
Histogram: 2 0 0 0 0 0 0 1 0 1

Total # of neighbors = 33698
Ave neighs/atom = 24.07
Neighbor list builds = 0
Dangerous builds = 0
Executing command: 'write_restart ../DEM/liggghts.restartCFDEM'
System init for write_restart ...
LIGGGHTS finished

 timeStepFraction() = 1
[3] cellI = 1003
[3] index = 1
[3] Us = (-4.14204e-06 -8.60651e-06 -3.62378e-05)
[3] Ur = (-6.45222e-05 7.55668e-05 -0.00144799)
[3] dprim = 0.001
[3] phi = 1
[3] rho = 1000
[3] nuf = 1e-06
[3] voidfraction = 0.480108
[3] Rep = 0
[3] betaP = 164970
[3] drag = (-5.57329e-09 6.5273e-09 -1.25074e-07)
[1] cellI = 1016
[1] index = 0
[1] Us = (-5.01669e-07 7.96192e-06 -3.36207e-05)
[1] Ur = (-6.32854e-05 -5.56217e-05 -0.000596018)
[1] dprim = 0.001
[1] phi = 1
[1] rho = 1000
[1] nuf = 1e-06
[1] voidfraction = 0.491498
[1] Rep = 0
[1] betaP = 156243
[1] drag = (-5.17728e-09 -4.55033e-09 -4.87593e-08)

Solver level total Eulerian momentum exchange:
  TotalForceImp:  (-1.30563e-06 -6.68209e-06 0.000189056)
  Warning, these values are based on latest Ksl and Us but prev. iteration U!

DILUPBiCG:  Solving for Ux, Initial residual = 0.0392643, Final residual = 1.21272e-05, No Iterations 1
DILUPBiCG:  Solving for Uy, Initial residual = 0.0396694, Final residual = 1.16256e-05, No Iterations 1
DILUPBiCG:  Solving for Uz, Initial residual = 0.0265642, Final residual = 6.91402e-06, No Iterations 1
DICPCG:  Solving for p, Initial residual = 0.022133, Final residual = 0.00144285, No Iterations 69
DICPCG:  Solving for p, Initial residual = 0.00186212, Final residual = 0.000177425, No Iterations 6
time step continuity errors : sum local = 3.58557e-08, global = 2.10309e-10, cumulative = 3.96963e-09
DICPCG:  Solving for p, Initial residual = 0.000236846, Final residual = 2.02278e-05, No Iterations 66
DICPCG:  Solving for p, Initial residual = 2.02082e-05, Final residual = 1.89666e-06, No Iterations 7
time step continuity errors : sum local = 3.83199e-10, global = -1.69979e-11, cumulative = 3.95264e-09
DICPCG:  Solving for p, Initial residual = 2.03093e-06, Final residual = 7.93619e-07, No Iterations 3
DICPCG:  Solving for p, Initial residual = 7.93619e-07, Final residual = 7.93619e-07, No Iterations 0
time step continuity errors : sum local = 1.6034e-10, global = -1.91467e-11, cumulative = 3.93349e-09
DICPCG:  Solving for p, Initial residual = 7.97284e-07, Final residual = 7.97284e-07, No Iterations 0
DICPCG:  Solving for p, Initial residual = 7.97284e-07, Final residual = 7.97284e-07, No Iterations 0
time step continuity errors : sum local = 1.61081e-10, global = -1.91568e-11, cumulative = 3.91433e-09
ExecutionTime = 0.9 s  ClockTime = 0 s

Time = 0.015

Courant Number mean: 0.0010452 max: 0.00408028

 Coupling...
Starting up LIGGGHTS
Executing command: 'run 100    '
Setting up run at Tue Mar  7 10:02:17 2023

Memory usage per processor = 7.05667 Mbytes
    Step    Atoms 
  351400     1400 
  351500     1400 
Loop time of 0.0392385 on 4 procs for 100 steps with 1400 atoms, finish time Tue Mar  7 10:02:17 2023


Pair  time (%) = 0.0148506 (37.847)
Neigh time (%) = 0 (0)
Comm  time (%) = 0.00107441 (2.73816)
Outpt time (%) = 0.000205858 (0.524634)
Other time (%) = 0.0231076 (58.8902)

Nlocal:    350 ave 806 max 0 min
Histogram: 2 0 0 0 0 0 0 1 0 1
Nghost:    564.5 ave 1198 max 0 min
Histogram: 2 0 0 0 0 0 0 0 1 1
Neighs:    8424.25 ave 19129 max 0 min
Histogram: 2 0 0 0 0 0 0 1 0 1

Total # of neighbors = 33697
Ave neighs/atom = 24.0693
Neighbor list builds = 0
Dangerous builds = 0
Executing command: 'write_restart ../DEM/liggghts.restartCFDEM'
System init for write_restart ...
LIGGGHTS finished

 timeStepFraction() = 1
[1] cellI = 1016
[1] index = 0
[1] Us = (1.06988e-06 5.05806e-06 -3.485e-05)
[1] Ur = (-6.09832e-05 -4.47522e-05 -0.000589171)
[1] dprim = 0.001
[1] phi = 1
[1] rho = 1000
[1] nuf = 1e-06
[1] voidfraction = 0.49151
[1] Rep = 0
[1] betaP = 156222
[1] drag = (-4.98827e-09 -3.66062e-09 -4.81927e-08)
[3] cellI = 1003
[3] index = 1
[3] Us = (-2.82309e-06 -1.04675e-05 -3.75315e-05)
[3] Ur = (-6.52516e-05 7.69143e-05 -0.00142033)
[3] dprim = 0.001
[3] phi = 1
[3] rho = 1000
[3] nuf = 1e-06
[3] voidfraction = 0.480119
[3] Rep = 0
[3] betaP = 164914
[3] drag = (-5.6344e-09 6.64146e-09 -1.22644e-07)

Solver level total Eulerian momentum exchange:
  TotalForceImp:  (2.61519e-07 -1.05389e-05 0.000314627)
  Warning, these values are based on latest Ksl and Us but prev. iteration U!

DILUPBiCG:  Solving for Ux, Initial residual = 0.0517441, Final residual = 1.01894e-05, No Iterations 1
DILUPBiCG:  Solving for Uy, Initial residual = 0.0567698, Final residual = 9.56068e-06, No Iterations 1
DILUPBiCG:  Solving for Uz, Initial residual = 0.0105917, Final residual = 2.96422e-06, No Iterations 1
DICPCG:  Solving for p, Initial residual = 0.0479505, Final residual = 0.00442548, No Iterations 34
DICPCG:  Solving for p, Initial residual = 0.00436366, Final residual = 0.000346256, No Iterations 54
time step continuity errors : sum local = 7.12108e-08, global = -5.25733e-09, cumulative = -1.343e-09
DICPCG:  Solving for p, Initial residual = 0.000471627, Final residual = 4.51855e-05, No Iterations 32
DICPCG:  Solving for p, Initial residual = 4.5166e-05, Final residual = 4.10615e-06, No Iterations 67
time step continuity errors : sum local = 6.96478e-10, global = -8.28198e-12, cumulative = -1.35128e-09
DICPCG:  Solving for p, Initial residual = 4.51046e-06, Final residual = 9.18e-07, No Iterations 19
DICPCG:  Solving for p, Initial residual = 9.18005e-07, Final residual = 9.18005e-07, No Iterations 0
time step continuity errors : sum local = 1.55834e-10, global = 4.65786e-12, cumulative = -1.34662e-09
DICPCG:  Solving for p, Initial residual = 9.19684e-07, Final residual = 9.19684e-07, No Iterations 0
DICPCG:  Solving for p, Initial residual = 9.19684e-07, Final residual = 9.19684e-07, No Iterations 0
time step continuity errors : sum local = 1.56119e-10, global = 4.72885e-12, cumulative = -1.34189e-09
ExecutionTime = 0.96 s  ClockTime = 0 s

Time = 0.016

Courant Number mean: 0.0010445 max: 0.00388381

 Coupling...
Starting up LIGGGHTS
Executing command: 'run 100    '
Setting up run at Tue Mar  7 10:02:17 2023

Memory usage per processor = 7.05667 Mbytes
    Step    Atoms 
  351500     1400 
  351600     1400 
Loop time of 0.0395409 on 4 procs for 100 steps with 1400 atoms, finish time Tue Mar  7 10:02:18 2023


Pair  time (%) = 0.0149332 (37.7665)
Neigh time (%) = 0 (0)
Comm  time (%) = 0.00107873 (2.72814)
Outpt time (%) = 0.000206403 (0.521997)
Other time (%) = 0.0233226 (58.9834)

Nlocal:    350 ave 806 max 0 min
Histogram: 2 0 0 0 0 0 0 1 0 1
Nghost:    564.75 ave 1198 max 0 min
Histogram: 2 0 0 0 0 0 0 0 1 1
Neighs:    8424.5 ave 19130 max 0 min
Histogram: 2 0 0 0 0 0 0 1 0 1

Total # of neighbors = 33698
Ave neighs/atom = 24.07
Neighbor list builds = 0
Dangerous builds = 0
Executing command: 'write_restart ../DEM/liggghts.restartCFDEM'
System init for write_restart ...
LIGGGHTS finished

 timeStepFraction() = 1
[3] cellI = 1003
[3] index = 1
[3] Us = (1.90224e-06 1.72843e-06 4.02389e-06)
[3] Ur = (-0.000105332 6.40168e-05 -0.00150705)
[3] dprim = 0.001
[3] phi = 1
[3] rho = 1000
[3] nuf = 1e-06
[3] voidfraction = 0.480124
[3] Rep = 0
[3] betaP = 165065
[3] drag = (-9.10366e-09 5.53285e-09 -1.30251e-07)
[1] cellI = 1016
[1] index = 0
[1] Us = (1.32727e-06 9.59436e-07 3.88176e-06)
[1] Ur = (-5.75425e-05 -4.00482e-05 -0.00059896)
[1] dprim = 0.001
[1] phi = 1
[1] rho = 1000
[1] nuf = 1e-06
[1] voidfraction = 0.491514
[1] Rep = 0
[1] betaP = 156235
[1] drag = (-4.70723e-09 -3.27612e-09 -4.89976e-08)

Solver level total Eulerian momentum exchange:
  TotalForceImp:  (-3.45379e-06 -7.80098e-06 0.00036081)
  Warning, these values are based on latest Ksl and Us but prev. iteration U!

DILUPBiCG:  Solving for Ux, Initial residual = 0.0629537, Final residual = 2.66774e-05, No Iterations 1
DILUPBiCG:  Solving for Uy, Initial residual = 0.0592684, Final residual = 2.43734e-05, No Iterations 1
DILUPBiCG:  Solving for Uz, Initial residual = 0.0375018, Final residual = 1.29067e-05, No Iterations 1
DICPCG:  Solving for p, Initial residual = 0.0941679, Final residual = 0.00635573, No Iterations 69
DICPCG:  Solving for p, Initial residual = 0.0035997, Final residual = 0.000329553, No Iterations 6
time step continuity errors : sum local = 9.90666e-08, global = -1.19066e-09, cumulative = -2.53256e-09
DICPCG:  Solving for p, Initial residual = 0.000428602, Final residual = 4.23076e-05, No Iterations 46
DICPCG:  Solving for p, Initial residual = 4.23117e-05, Final residual = 4.12805e-06, No Iterations 67
time step continuity errors : sum local = 1.23799e-09, global = 3.93529e-14, cumulative = -2.53252e-09
DICPCG:  Solving for p, Initial residual = 4.26953e-06, Final residual = 8.41546e-07, No Iterations 6
DICPCG:  Solving for p, Initial residual = 8.41548e-07, Final residual = 8.41548e-07, No Iterations 0
time step continuity errors : sum local = 2.51966e-10, global = 6.6626e-12, cumulative = -2.52585e-09
DICPCG:  Solving for p, Initial residual = 8.44684e-07, Final residual = 8.44684e-07, No Iterations 0
DICPCG:  Solving for p, Initial residual = 8.44684e-07, Final residual = 8.44684e-07, No Iterations 0
time step continuity errors : sum local = 2.52905e-10, global = 6.67473e-12, cumulative = -2.51918e-09
ExecutionTime = 1.02 s  ClockTime = 1 s

Time = 0.017

Courant Number mean: 0.0010462 max: 0.00414129

 Coupling...
Starting up LIGGGHTS
Executing command: 'run 100    '
Setting up run at Tue Mar  7 10:02:18 2023

Memory usage per processor = 7.05667 Mbytes
    Step    Atoms 
  351600     1400 
  351700     1400 
Loop time of 0.0378588 on 4 procs for 100 steps with 1400 atoms, finish time Tue Mar  7 10:02:18 2023


Pair  time (%) = 0.0145397 (38.405)
Neigh time (%) = 0 (0)
Comm  time (%) = 0.00105506 (2.78682)
Outpt time (%) = 0.000211591 (0.558896)
Other time (%) = 0.0220525 (58.2493)

Nlocal:    350 ave 806 max 0 min
Histogram: 2 0 0 0 0 0 0 1 0 1
Nghost:    564.75 ave 1198 max 0 min
Histogram: 2 0 0 0 0 0 0 0 1 1
Neighs:    8424.5 ave 19130 max 0 min
Histogram: 2 0 0 0 0 0 0 1 0 1

Total # of neighbors = 33698
Ave neighs/atom = 24.07
Neighbor list builds = 0
Dangerous builds = 0
Executing command: 'write_restart ../DEM/liggghts.restartCFDEM'
System init for write_restart ...
LIGGGHTS finished

 timeStepFraction() = 1
[1] cellI = 1016
[1] index = 0
[1] Us = (1.33275e-08 -5.38086e-06 3.87131e-05)
[1] Ur = (-6.17637e-05 -2.96923e-05 -0.000631008)
[1] dprim = 0.001
[1] phi = 1
[1] rho = 1000
[1] nuf = 1e-06
[1] voidfraction = 0.491506
[1] Rep = 0
[1] betaP = 156295
[1] drag = (-5.0545e-09 -2.4299e-09 -5.16392e-08)
[3] cellI = 1003
[3] index = 1
[3] Us = (4.28991e-06 1.09968e-05 4.01376e-05)
[3] Ur = (-9.78467e-05 4.54556e-05 -0.00152353)
[3] dprim = 0.001
[3] phi = 1
[3] rho = 1000
[3] nuf = 1e-06
[3] voidfraction = 0.480117
[3] Rep = 0
[3] betaP = 165097
[3] drag = (-8.4583e-09 3.92938e-09 -1.31701e-07)

Solver level total Eulerian momentum exchange:
  TotalForceImp:  (-6.06223e-06 -8.27342e-06 0.000431128)
  Warning, these values are based on latest Ksl and Us but prev. iteration U!

DILUPBiCG:  Solving for Ux, Initial residual = 0.0399708, Final residual = 1.75839e-05, No Iterations 1
DILUPBiCG:  Solving for Uy, Initial residual = 0.0367372, Final residual = 1.45422e-05, No Iterations 1
DILUPBiCG:  Solving for Uz, Initial residual = 0.0210321, Final residual = 6.95368e-06, No Iterations 1
DICPCG:  Solving for p, Initial residual = 0.0135643, Final residual = 0.00120636, No Iterations 7
DICPCG:  Solving for p, Initial residual = 0.00120356, Final residual = 9.59718e-05, No Iterations 69
time step continuity errors : sum local = 2.90016e-08, global = 2.74594e-10, cumulative = -2.24459e-09
DICPCG:  Solving for p, Initial residual = 0.000107456, Final residual = 9.32064e-06, No Iterations 8
DICPCG:  Solving for p, Initial residual = 9.32111e-06, Final residual = 9.76572e-07, No Iterations 65
time step continuity errors : sum local = 3.00112e-10, global = 5.05545e-12, cumulative = -2.23953e-09
DICPCG:  Solving for p, Initial residual = 1.01518e-06, Final residual = 6.20271e-07, No Iterations 1
DICPCG:  Solving for p, Initial residual = 6.20271e-07, Final residual = 6.20271e-07, No Iterations 0
time step continuity errors : sum local = 1.906e-10, global = 3.86349e-12, cumulative = -2.23567e-09
DICPCG:  Solving for p, Initial residual = 6.20104e-07, Final residual = 6.20104e-07, No Iterations 0
DICPCG:  Solving for p, Initial residual = 6.20104e-07, Final residual = 6.20104e-07, No Iterations 0
time step continuity errors : sum local = 1.90549e-10, global = 3.85444e-12, cumulative = -2.23181e-09
ExecutionTime = 1.08 s  ClockTime = 1 s

Time = 0.018

Courant Number mean: 0.00104847 max: 0.0043268

 Coupling...
Starting up LIGGGHTS
Executing command: 'run 100    '
Setting up run at Tue Mar  7 10:02:18 2023

Memory usage per processor = 7.05667 Mbytes
    Step    Atoms 
  351700     1400 
  351800     1400 
Loop time of 0.0377979 on 4 procs for 100 steps with 1400 atoms, finish time Tue Mar  7 10:02:18 2023


Pair  time (%) = 0.0145337 (38.451)
Neigh time (%) = 0 (0)
Comm  time (%) = 0.00105479 (2.79061)
Outpt time (%) = 0.000206155 (0.545414)
Other time (%) = 0.0220033 (58.2129)

Nlocal:    350 ave 806 max 0 min
Histogram: 2 0 0 0 0 0 0 1 0 1
Nghost:    564.75 ave 1198 max 0 min
Histogram: 2 0 0 0 0 0 0 0 1 1
Neighs:    8424.5 ave 19130 max 0 min
Histogram: 2 0 0 0 0 0 0 1 0 1

Total # of neighbors = 33698
Ave neighs/atom = 24.07
Neighbor list builds = 0
Dangerous builds = 0
Executing command: 'write_restart ../DEM/liggghts.restartCFDEM'
System init for write_restart ...
LIGGGHTS finished

 timeStepFraction() = 1
[3] cellI = 1003
[3] index = 1
[3] Us = (1.06451e-07 4.08263e-06 1.63081e-05)
[3] Ur = (-8.22868e-05 5.11002e-05 -0.0014755)
[3] dprim = 0.001
[3] phi = 1
[3] rho = 1000
[3] nuf = 1e-06
[3] voidfraction = 0.480109
[3] Rep = 0
[3] betaP = 165017
[3] drag = (-7.10978e-09 4.41518e-09 -1.27487e-07)
[1] cellI = 1016
[1] index = 0
[1] Us = (-1.21769e-06 -3.65289e-06 1.40993e-05)
[1] Ur = (-6.31901e-05 -3.16257e-05 -0.000588116)
[1] dprim = 0.001
[1] phi = 1
[1] rho = 1000
[1] nuf = 1e-06
[1] voidfraction = 0.491499
[1] Rep = 0
[1] betaP = 156225
[1] drag = (-5.16891e-09 -2.58696e-09 -4.81075e-08)

Solver level total Eulerian momentum exchange:
  TotalForceImp:  (-5.90232e-06 -1.64061e-05 0.000330802)
  Warning, these values are based on latest Ksl and Us but prev. iteration U!

DILUPBiCG:  Solving for Ux, Initial residual = 0.0463608, Final residual = 1.14539e-05, No Iterations 1
DILUPBiCG:  Solving for Uy, Initial residual = 0.0454194, Final residual = 9.07733e-06, No Iterations 1
DILUPBiCG:  Solving for Uz, Initial residual = 0.01393, Final residual = 3.83504e-06, No Iterations 1
DICPCG:  Solving for p, Initial residual = 0.0139966, Final residual = 0.00123971, No Iterations 34
DICPCG:  Solving for p, Initial residual = 0.00122777, Final residual = 0.000101714, No Iterations 56
time step continuity errors : sum local = 3.16892e-08, global = 3.83598e-09, cumulative = 1.60416e-09
DICPCG:  Solving for p, Initial residual = 0.000117747, Final residual = 9.75596e-06, No Iterations 32
DICPCG:  Solving for p, Initial residual = 9.75949e-06, Final residual = 8.43538e-07, No Iterations 55
time step continuity errors : sum local = 2.52005e-10, global = -5.92789e-11, cumulative = 1.54488e-09
DICPCG:  Solving for p, Initial residual = 1.02351e-06, Final residual = 9.15787e-07, No Iterations 1
DICPCG:  Solving for p, Initial residual = 9.15787e-07, Final residual = 9.15787e-07, No Iterations 0
time step continuity errors : sum local = 2.73635e-10, global = -7.96915e-11, cumulative = 1.46519e-09
DICPCG:  Solving for p, Initial residual = 9.1622e-07, Final residual = 9.1622e-07, No Iterations 0
DICPCG:  Solving for p, Initial residual = 9.1622e-07, Final residual = 9.1622e-07, No Iterations 0
time step continuity errors : sum local = 2.73765e-10, global = -7.98018e-11, cumulative = 1.38539e-09
ExecutionTime = 1.14 s  ClockTime = 1 s

Time = 0.019

Courant Number mean: 0.00105077 max: 0.00448401

 Coupling...
Starting up LIGGGHTS
Executing command: 'run 100    '
Setting up run at Tue Mar  7 10:02:18 2023

Memory usage per processor = 7.05667 Mbytes
    Step    Atoms 
  351800     1400 
  351900     1400 
Loop time of 0.0379293 on 4 procs for 100 steps with 1400 atoms, finish time Tue Mar  7 10:02:18 2023


Pair  time (%) = 0.0146024 (38.499)
Neigh time (%) = 0 (0)
Comm  time (%) = 0.00105541 (2.78257)
Outpt time (%) = 0.00020831 (0.549206)
Other time (%) = 0.0220632 (58.1693)

Nlocal:    350 ave 806 max 0 min
Histogram: 2 0 0 0 0 0 0 1 0 1
Nghost:    564.5 ave 1198 max 0 min
Histogram: 2 0 0 0 0 0 0 0 1 1
Neighs:    8424.5 ave 19130 max 0 min
Histogram: 2 0 0 0 0 0 0 1 0 1

Total # of neighbors = 33698
Ave neighs/atom = 24.07
Neighbor list builds = 0
Dangerous builds = 0
Executing command: 'write_restart ../DEM/liggghts.restartCFDEM'
System init for write_restart ...
LIGGGHTS finished

 timeStepFraction() = 1
[1] cellI = 1016
[1] index = 0
[1] Us = (-5.78711e-07 2.37618e-06 -8.9525e-06)
[1] Ur = (-6.30893e-05 -3.51636e-05 -0.000560724)
[1] dprim = 0.001
[1] phi = 1
[1] rho = 1000
[1] nuf = 1e-06
[1] voidfraction = 0.491497
[1] Rep = 0
[1] betaP = 156179
[1] drag = (-5.15914e-09 -2.87551e-09 -4.58533e-08)
[3] cellI = 1003
[3] index = 1
[3] Us = (-2.24405e-06 -6.57036e-07 -9.25136e-06)
[3] Ur = (-7.23546e-05 5.25116e-05 -0.00142426)
[3] dprim = 0.001
[3] phi = 1
[3] rho = 1000
[3] nuf = 1e-06
[3] voidfraction = 0.480108
[3] Rep = 0
[3] betaP = 164927
[3] drag = (-6.24822e-09 4.53467e-09 -1.22992e-07)

Solver level total Eulerian momentum exchange:
  TotalForceImp:  (-1.83316e-06 -1.14329e-05 0.000219996)
  Warning, these values are based on latest Ksl and Us but prev. iteration U!

DILUPBiCG:  Solving for Ux, Initial residual = 0.0455975, Final residual = 1.17455e-05, No Iterations 1
DILUPBiCG:  Solving for Uy, Initial residual = 0.0438705, Final residual = 1.0167e-05, No Iterations 1
DILUPBiCG:  Solving for Uz, Initial residual = 0.0223933, Final residual = 6.24804e-06, No Iterations 1
DICPCG:  Solving for p, Initial residual = 0.0285506, Final residual = 0.00238477, No Iterations 69
DICPCG:  Solving for p, Initial residual = 0.0032645, Final residual = 0.000320797, No Iterations 7
time step continuity errors : sum local = 6.91779e-08, global = 1.85212e-09, cumulative = 3.23751e-09
DICPCG:  Solving for p, Initial residual = 0.000394856, Final residual = 3.77157e-05, No Iterations 37
DICPCG:  Solving for p, Initial residual = 3.77285e-05, Final residual = 3.65903e-06, No Iterations 54
time step continuity errors : sum local = 7.87166e-10, global = 1.05499e-10, cumulative = 3.34301e-09
DICPCG:  Solving for p, Initial residual = 3.98931e-06, Final residual = 8.66579e-07, No Iterations 21
DICPCG:  Solving for p, Initial residual = 8.6659e-07, Final residual = 8.6659e-07, No Iterations 0
time step continuity errors : sum local = 1.86662e-10, global = -6.82219e-12, cumulative = 3.33619e-09
DICPCG:  Solving for p, Initial residual = 8.69478e-07, Final residual = 8.69478e-07, No Iterations 0
DICPCG:  Solving for p, Initial residual = 8.69478e-07, Final residual = 8.69478e-07, No Iterations 0
time step continuity errors : sum local = 1.87284e-10, global = -7.46273e-12, cumulative = 3.32872e-09
ExecutionTime = 1.2 s  ClockTime = 1 s

Time = 0.02

Courant Number mean: 0.00104887 max: 0.00440843

 Coupling...
Starting up LIGGGHTS
Executing command: 'run 100    '
Setting up run at Tue Mar  7 10:02:18 2023

Memory usage per processor = 7.05667 Mbytes
    Step    Atoms 
  351900     1400 
  352000     1400 
Loop time of 0.0433981 on 4 procs for 100 steps with 1400 atoms, finish time Tue Mar  7 10:02:18 2023


Pair  time (%) = 0.0145807 (33.5976)
Neigh time (%) = 0 (0)
Comm  time (%) = 0.00105664 (2.43476)
Outpt time (%) = 0.00560457 (12.9143)
Other time (%) = 0.0221562 (51.0534)

Nlocal:    350 ave 806 max 0 min
Histogram: 2 0 0 0 0 0 0 1 0 1
Nghost:    564.5 ave 1198 max 0 min
Histogram: 2 0 0 0 0 0 0 0 1 1
Neighs:    8424.5 ave 19130 max 0 min
Histogram: 2 0 0 0 0 0 0 1 0 1

Total # of neighbors = 33698
Ave neighs/atom = 24.07
Neighbor list builds = 0
Dangerous builds = 0
Executing command: 'write_restart ../DEM/liggghts.restartCFDEM'
System init for write_restart ...
LIGGGHTS finished

 timeStepFraction() = 1
[3] cellI = 1003
[3] index = 1
[3] Us = (-2.51985e-06 -1.19915e-05 -3.8275e-05)
[3] Ur = (-6.69432e-05 6.57018e-05 -0.00136772)
[3] dprim = 0.001
[3] phi = 1
[3] rho = 1000
[3] nuf = 1e-06
[3] voidfraction = 0.480115
[3] Rep = 0
[3] betaP = 164824
[3] drag = (-5.77731e-09 5.67018e-09 -1.18036e-07)
[1] cellI = 1016
[1] index = 0
[1] Us = (7.72283e-07 4.46763e-06 -3.49682e-05)
[1] Ur = (-6.0786e-05 -3.13944e-05 -0.00053008)
[1] dprim = 0.001
[1] phi = 1
[1] rho = 1000
[1] nuf = 1e-06
[1] voidfraction = 0.491505
[1] Rep = 0
[1] betaP = 156120
[1] drag = (-4.96892e-09 -2.56632e-09 -4.33311e-08)

Solver level total Eulerian momentum exchange:
  TotalForceImp:  (3.05639e-06 -1.40095e-05 0.000169404)
  Warning, these values are based on latest Ksl and Us but prev. iteration U!

DILUPBiCG:  Solving for Ux, Initial residual = 0.0410653, Final residual = 9.85773e-06, No Iterations 1
DILUPBiCG:  Solving for Uy, Initial residual = 0.0353565, Final residual = 7.76769e-06, No Iterations 1
DILUPBiCG:  Solving for Uz, Initial residual = 0.0210247, Final residual = 3.20553e-06, No Iterations 1
DICPCG:  Solving for p, Initial residual = 0.0316866, Final residual = 0.00270567, No Iterations 34
DICPCG:  Solving for p, Initial residual = 0.00272231, Final residual = 0.000241058, No Iterations 54
time step continuity errors : sum local = 5.09713e-08, global = 2.44449e-09, cumulative = 5.77321e-09
DICPCG:  Solving for p, Initial residual = 0.000294999, Final residual = 2.76978e-05, No Iterations 28
DICPCG:  Solving for p, Initial residual = 2.77052e-05, Final residual = 2.59966e-06, No Iterations 66
time step continuity errors : sum local = 4.94531e-10, global = -7.83509e-12, cumulative = 5.76538e-09
DICPCG:  Solving for p, Initial residual = 2.73584e-06, Final residual = 6.70055e-07, No Iterations 5
DICPCG:  Solving for p, Initial residual = 6.70056e-07, Final residual = 6.70056e-07, No Iterations 0
time step continuity errors : sum local = 1.27519e-10, global = -9.89365e-12, cumulative = 5.75548e-09
DICPCG:  Solving for p, Initial residual = 6.71453e-07, Final residual = 6.71453e-07, No Iterations 0
DICPCG:  Solving for p, Initial residual = 6.71453e-07, Final residual = 6.71453e-07, No Iterations 0
time step continuity errors : sum local = 1.27785e-10, global = -9.91064e-12, cumulative = 5.74557e-09
ExecutionTime = 1.28 s  ClockTime = 1 s

Time = 0.021

Courant Number mean: 0.00104765 max: 0.00431978

 Coupling...
Starting up LIGGGHTS
Executing command: 'run 100    '
Setting up run at Tue Mar  7 10:02:18 2023

Memory usage per processor = 7.05667 Mbytes
    Step    Atoms 
  352000     1400 
  352100     1400 
Loop time of 0.0396839 on 4 procs for 100 steps with 1400 atoms, finish time Tue Mar  7 10:02:18 2023


Pair  time (%) = 0.0152354 (38.3917)
Neigh time (%) = 0 (0)
Comm  time (%) = 0.00110407 (2.78216)
Outpt time (%) = 0.000215713 (0.543576)
Other time (%) = 0.0231288 (58.2825)

Nlocal:    350 ave 806 max 0 min
Histogram: 2 0 0 0 0 0 0 1 0 1
Nghost:    564.75 ave 1198 max 0 min
Histogram: 2 0 0 0 0 0 0 0 1 1
Neighs:    8424.25 ave 19129 max 0 min
Histogram: 2 0 0 0 0 0 0 1 0 1

Total # of neighbors = 33697
Ave neighs/atom = 24.0693
Neighbor list builds = 0
Dangerous builds = 0
Executing command: 'write_restart ../DEM/liggghts.restartCFDEM'
System init for write_restart ...
LIGGGHTS finished

 timeStepFraction() = 1
[1] cellI = 1016
[1] index = 0
[1] Us = (9.84566e-07 -3.70212e-07 -5.20556e-06)
[1] Ur = (-5.83862e-05 -2.5175e-05 -0.000558146)
[1] dprim = 0.001
[1] phi = 1
[1] rho = 1000
[1] nuf = 1e-06
[1] voidfraction = 0.491511
[1] Rep = 0
[1] betaP = 156165
[1] drag = (-4.77409e-09 -2.05849e-09 -4.56382e-08)
[3] cellI = 1003
[3] index = 1
[3] Us = (6.775e-07 -2.59944e-06 -3.38851e-06)
[3] Ur = (-6.62393e-05 5.02364e-05 -0.00138234)
[3] dprim = 0.001
[3] phi = 1
[3] rho = 1000
[3] nuf = 1e-06
[3] voidfraction = 0.480122
[3] Rep = 0
[3] betaP = 164844
[3] drag = (-5.71726e-09 4.33602e-09 -1.19313e-07)

Solver level total Eulerian momentum exchange:
  TotalForceImp:  (-6.0653e-06 -9.62501e-06 0.000358104)
  Warning, these values are based on latest Ksl and Us but prev. iteration U!

DILUPBiCG:  Solving for Ux, Initial residual = 0.0352607, Final residual = 1.25423e-05, No Iterations 1
DILUPBiCG:  Solving for Uy, Initial residual = 0.0305402, Final residual = 1.05615e-05, No Iterations 1
DILUPBiCG:  Solving for Uz, Initial residual = 0.0249174, Final residual = 7.60804e-06, No Iterations 1
DICPCG:  Solving for p, Initial residual = 0.0403298, Final residual = 0.00349893, No Iterations 68
DICPCG:  Solving for p, Initial residual = 0.00251385, Final residual = 0.000216022, No Iterations 6
time step continuity errors : sum local = 5.76513e-08, global = -1.77855e-10, cumulative = 5.56772e-09
DICPCG:  Solving for p, Initial residual = 0.000271909, Final residual = 2.56495e-05, No Iterations 44
DICPCG:  Solving for p, Initial residual = 2.56502e-05, Final residual = 1.9698e-06, No Iterations 68
time step continuity errors : sum local = 5.24867e-10, global = 7.39733e-12, cumulative = 5.57511e-09
DICPCG:  Solving for p, Initial residual = 2.19406e-06, Final residual = 7.81382e-07, No Iterations 3
DICPCG:  Solving for p, Initial residual = 7.81382e-07, Final residual = 7.81382e-07, No Iterations 0
time step continuity errors : sum local = 2.08003e-10, global = 3.13698e-12, cumulative = 5.57825e-09
DICPCG:  Solving for p, Initial residual = 7.85099e-07, Final residual = 7.85099e-07, No Iterations 0
DICPCG:  Solving for p, Initial residual = 7.85099e-07, Final residual = 7.85099e-07, No Iterations 0
time step continuity errors : sum local = 2.08993e-10, global = 3.13252e-12, cumulative = 5.58138e-09
ExecutionTime = 1.34 s  ClockTime = 1 s

Time = 0.022

Courant Number mean: 0.00104879 max: 0.00439889

 Coupling...
Starting up LIGGGHTS
Executing command: 'run 100    '
Setting up run at Tue Mar  7 10:02:18 2023

Memory usage per processor = 7.05667 Mbytes
    Step    Atoms 
  352100     1400 
  352200     1400 
Loop time of 0.0395085 on 4 procs for 100 steps with 1400 atoms, finish time Tue Mar  7 10:02:18 2023


Pair  time (%) = 0.0151874 (38.4409)
Neigh time (%) = 0 (0)
Comm  time (%) = 0.00110291 (2.79158)
Outpt time (%) = 0.00021454 (0.543024)
Other time (%) = 0.0230036 (58.2245)

Nlocal:    350 ave 806 max 0 min
Histogram: 2 0 0 0 0 0 0 1 0 1
Nghost:    564.75 ave 1198 max 0 min
Histogram: 2 0 0 0 0 0 0 0 1 1
Neighs:    8424.5 ave 19130 max 0 min
Histogram: 2 0 0 0 0 0 0 1 0 1

Total # of neighbors = 33698
Ave neighs/atom = 24.07
Neighbor list builds = 0
Dangerous builds = 0
Executing command: 'write_restart ../DEM/liggghts.restartCFDEM'
System init for write_restart ...
LIGGGHTS finished

 timeStepFraction() = 1
[3] cellI = 1003
[3] index = 1
[3] Us = (1.84327e-06 7.10486e-06 2.22015e-05)
[3] Ur = (-6.86148e-05 3.52376e-05 -0.0014106)
[3] dprim = 0.001
[3] phi = 1
[3] rho = 1000
[3] nuf = 1e-06
[3] voidfraction = 0.480118
[3] Rep = 0
[3] betaP = 164895
[3] drag = (-5.92413e-09 3.04238e-09 -1.2179e-07)
[1] cellI = 1016
[1] index = 0
[1] Us = (-1.23534e-06 -2.35402e-06 2.24185e-05)
[1] Ur = (-5.79253e-05 -2.1386e-05 -0.000577893)
[1] dprim = 0.001
[1] phi = 1
[1] rho = 1000
[1] nuf = 1e-06
[1] voidfraction = 0.491508
[1] Rep = 0
[1] betaP = 156200
[1] drag = (-4.73749e-09 -1.74908e-09 -4.72637e-08)

Solver level total Eulerian momentum exchange:
  TotalForceImp:  (-5.65149e-06 -7.21325e-06 0.000407388)
  Warning, these values are based on latest Ksl and Us but prev. iteration U!

DILUPBiCG:  Solving for Ux, Initial residual = 0.0203065, Final residual = 6.8168e-06, No Iterations 1
DILUPBiCG:  Solving for Uy, Initial residual = 0.0198992, Final residual = 6.7899e-06, No Iterations 1
DILUPBiCG:  Solving for Uz, Initial residual = 0.0154995, Final residual = 3.9163e-06, No Iterations 1
DICPCG:  Solving for p, Initial residual = 0.0114873, Final residual = 0.000831899, No Iterations 69
DICPCG:  Solving for p, Initial residual = 0.000773608, Final residual = 6.08307e-05, No Iterations 5
[...]
Setting up run at Tue Mar  7 10:02:23 2023

Memory usage per processor = 7.05667 Mbytes
    Step    Atoms 
  359400     1400 
  359500     1400 
Loop time of 0.0393217 on 4 procs for 100 steps with 1400 atoms, finish time Tue Mar  7 10:02:23 2023


Pair  time (%) = 0.0151767 (38.5964)
Neigh time (%) = 0 (0)
Comm  time (%) = 0.00109765 (2.79145)
Outpt time (%) = 0.00021351 (0.542983)
Other time (%) = 0.0228338 (58.0692)

Nlocal:    350 ave 806 max 0 min
Histogram: 2 0 0 0 0 0 0 1 0 1
Nghost:    564.75 ave 1198 max 0 min
Histogram: 2 0 0 0 0 0 0 0 1 1
Neighs:    8424.25 ave 19129 max 0 min
Histogram: 2 0 0 0 0 0 0 1 0 1

Total # of neighbors = 33697
Ave neighs/atom = 24.0693
Neighbor list builds = 0
Dangerous builds = 0
Executing command: 'write_restart ../DEM/liggghts.restartCFDEM'
System init for write_restart ...
LIGGGHTS finished

 timeStepFraction() = 1
[3] cellI = 1003
[3] index = 1
[3] Us = (-2.66866e-06 -7.45604e-07 -1.23439e-05)
[3] Ur = (2.43653e-05 4.06471e-05 -0.00110538)
[3] dprim = 0.001
[3] phi = 1
[3] rho = 1000
[3] nuf = 1e-06
[3] voidfraction = 0.480115
[3] Rep = 0
[3] betaP = 164361
[3] drag = (2.09686e-09 3.49807e-09 -9.51285e-08)
[1] cellI = 1016
[1] index = 0
[1] Us = (-2.6887e-06 4.47196e-06 -1.04605e-05)
[1] Ur = (-2.28241e-05 1.71793e-05 -0.000510064)
[1] dprim = 0.001
[1] phi = 1
[1] rho = 1000
[1] nuf = 1e-06
[1] voidfraction = 0.491504
[1] Rep = 0
[1] betaP = 156080
[1] drag = (-1.86526e-09 1.40395e-09 -4.1684e-08)

Solver level total Eulerian momentum exchange:
  TotalForceImp:  (-1.02969e-05 -4.60293e-06 0.000321722)
  Warning, these values are based on latest Ksl and Us but prev. iteration U!

DILUPBiCG:  Solving for Ux, Initial residual = 0.043418, Final residual = 6.44481e-06, No Iterations 1
DILUPBiCG:  Solving for Uy, Initial residual = 0.0495272, Final residual = 8.84025e-06, No Iterations 1
DILUPBiCG:  Solving for Uz, Initial residual = 0.0084695, Final residual = 2.56219e-06, No Iterations 1
DICPCG:  Solving for p, Initial residual = 0.0313675, Final residual = 0.00304354, No Iterations 13
DICPCG:  Solving for p, Initial residual = 0.0030744, Final residual = 0.000226339, No Iterations 68
time step continuity errors : sum local = 5.00607e-08, global = -9.12367e-10, cumulative = 1.55051e-08
DICPCG:  Solving for p, Initial residual = 0.00026138, Final residual = 2.53466e-05, No Iterations 10
DICPCG:  Solving for p, Initial residual = 2.5348e-05, Final residual = 2.03315e-06, No Iterations 68
time step continuity errors : sum local = 4.7315e-10, global = -1.33029e-11, cumulative = 1.54918e-08
DICPCG:  Solving for p, Initial residual = 2.26087e-06, Final residual = 6.78645e-07, No Iterations 3
DICPCG:  Solving for p, Initial residual = 6.78645e-07, Final residual = 6.78645e-07, No Iterations 0
time step continuity errors : sum local = 1.57888e-10, global = -7.3527e-13, cumulative = 1.5491e-08
DICPCG:  Solving for p, Initial residual = 6.80888e-07, Final residual = 6.80888e-07, No Iterations 0
DICPCG:  Solving for p, Initial residual = 6.80888e-07, Final residual = 6.80888e-07, No Iterations 0
time step continuity errors : sum local = 1.5841e-10, global = -6.58894e-13, cumulative = 1.54904e-08
ExecutionTime = 6.16 s  ClockTime = 6 s

Time = 0.096

Courant Number mean: 0.00105923 max: 0.00473699

 Coupling...
Starting up LIGGGHTS
Executing command: 'run 100    '
Setting up run at Tue Mar  7 10:02:23 2023

Memory usage per processor = 7.05667 Mbytes
    Step    Atoms 
  359500     1400 
  359600     1400 
Loop time of 0.0395462 on 4 procs for 100 steps with 1400 atoms, finish time Tue Mar  7 10:02:23 2023


Pair  time (%) = 0.0151884 (38.4067)
Neigh time (%) = 0 (0)
Comm  time (%) = 0.00110629 (2.79746)
Outpt time (%) = 0.000214396 (0.54214)
Other time (%) = 0.0230371 (58.2537)

Nlocal:    350 ave 806 max 0 min
Histogram: 2 0 0 0 0 0 0 1 0 1
Nghost:    564.75 ave 1198 max 0 min
Histogram: 2 0 0 0 0 0 0 0 1 1
Neighs:    8424.5 ave 19130 max 0 min
Histogram: 2 0 0 0 0 0 0 1 0 1

Total # of neighbors = 33698
Ave neighs/atom = 24.07
Neighbor list builds = 0
Dangerous builds = 0
Executing command: 'write_restart ../DEM/liggghts.restartCFDEM'
System init for write_restart ...
LIGGGHTS finished

 timeStepFraction() = 1
[1] cellI = 1016
[1] index = 0
[1] Us = (3.03755e-06 -3.90015e-06 6.61439e-06)
[1] Ur = (-2.88707e-05 3.03704e-05 -0.000525622)
[1] dprim = 0.001
[1] phi = 1
[1] rho = 1000
[1] nuf = 1e-06
[1] voidfraction = 0.491508
[1] Rep = 0
[1] betaP = 156106
[1] drag = (-2.3598e-09 2.48239e-09 -4.29627e-08)
[3] cellI = 1003
[3] index = 1
[3] Us = (2.44847e-06 -4.93095e-06 7.3736e-06)
[3] Ur = (1.44894e-05 4.29891e-05 -0.00111239)
[3] dprim = 0.001
[3] phi = 1
[3] rho = 1000
[3] nuf = 1e-06
[3] voidfraction = 0.480119
[3] Rep = 0
[3] betaP = 164371
[3] drag = (1.24703e-09 3.69984e-09 -9.57369e-08)

Solver level total Eulerian momentum exchange:
  TotalForceImp:  (-1.53333e-06 -9.90923e-06 0.000374065)
  Warning, these values are based on latest Ksl and Us but prev. iteration U!

DILUPBiCG:  Solving for Ux, Initial residual = 0.0268302, Final residual = 6.45108e-06, No Iterations 1
DILUPBiCG:  Solving for Uy, Initial residual = 0.0303711, Final residual = 7.73963e-06, No Iterations 1
DILUPBiCG:  Solving for Uz, Initial residual = 0.0116968, Final residual = 2.42295e-06, No Iterations 1
DICPCG:  Solving for p, Initial residual = 0.0244949, Final residual = 0.00174679, No Iterations 70
DICPCG:  Solving for p, Initial residual = 0.00147451, Final residual = 0.000117588, No Iterations 6
time step continuity errors : sum local = 3.26589e-08, global = -3.2901e-10, cumulative = 1.51613e-08
DICPCG:  Solving for p, Initial residual = 0.000152451, Final residual = 1.37515e-05, No Iterations 37
DICPCG:  Solving for p, Initial residual = 1.37515e-05, Final residual = 1.34255e-06, No Iterations 53
time step continuity errors : sum local = 3.72577e-10, global = 5.78272e-11, cumulative = 1.52192e-08
DICPCG:  Solving for p, Initial residual = 1.41062e-06, Final residual = 9.28378e-07, No Iterations 1
DICPCG:  Solving for p, Initial residual = 9.28378e-07, Final residual = 9.28378e-07, No Iterations 0
time step continuity errors : sum local = 2.57524e-10, global = 6.01374e-11, cumulative = 1.52793e-08
DICPCG:  Solving for p, Initial residual = 9.28158e-07, Final residual = 9.28158e-07, No Iterations 0
DICPCG:  Solving for p, Initial residual = 9.28158e-07, Final residual = 9.28158e-07, No Iterations 0
time step continuity errors : sum local = 2.57463e-10, global = 6.01485e-11, cumulative = 1.53395e-08
ExecutionTime = 6.22 s  ClockTime = 6 s

Time = 0.097

Courant Number mean: 0.00106014 max: 0.00485966

 Coupling...
Starting up LIGGGHTS
Executing command: 'run 100    '
Setting up run at Tue Mar  7 10:02:23 2023

Memory usage per processor = 7.05667 Mbytes
    Step    Atoms 
  359600     1400 
  359700     1400 
Loop time of 0.0394847 on 4 procs for 100 steps with 1400 atoms, finish time Tue Mar  7 10:02:23 2023


Pair  time (%) = 0.0151901 (38.4709)
Neigh time (%) = 0 (0)
Comm  time (%) = 0.00110997 (2.81114)
Outpt time (%) = 0.000216315 (0.547844)
Other time (%) = 0.0229683 (58.1702)

Nlocal:    350 ave 806 max 0 min
Histogram: 2 0 0 0 0 0 0 1 0 1
Nghost:    564.75 ave 1198 max 0 min
Histogram: 2 0 0 0 0 0 0 0 1 1
Neighs:    8424.25 ave 19129 max 0 min
Histogram: 2 0 0 0 0 0 0 1 0 1

Total # of neighbors = 33697
Ave neighs/atom = 24.0693
Neighbor list builds = 0
Dangerous builds = 0
Executing command: 'write_restart ../DEM/liggghts.restartCFDEM'
System init for write_restart ...
LIGGGHTS finished

 timeStepFraction() = 1
[3] cellI = 1003
[3] index = 1
[3] Us = (1.46712e-06 1.26458e-05 2.01588e-05)
[3] Ur = (1.64148e-05 2.65203e-05 -0.00114579)
[3] dprim = 0.001
[3] phi = 1
[3] rho = 1000
[3] nuf = 1e-06
[3] voidfraction = 0.480111
[3] Rep = 0
[3] betaP = 164433
[3] drag = (1.41327e-09 2.28332e-09 -9.86496e-08)
[1] cellI = 1016
[1] index = 0
[1] Us = (-1.29609e-06 2.40219e-07 1.91207e-05)
[1] Ur = (-2.29169e-05 2.21599e-05 -0.000537763)
[1] dprim = 0.001
[1] phi = 1
[1] rho = 1000
[1] nuf = 1e-06
[1] voidfraction = 0.4915
[1] Rep = 0
[1] betaP = 156131
[1] drag = (-1.87346e-09 1.81157e-09 -4.39621e-08)

Solver level total Eulerian momentum exchange:
  TotalForceImp:  (-7.0347e-06 -1.51984e-06 0.000377566)
  Warning, these values are based on latest Ksl and Us but prev. iteration U!

DILUPBiCG:  Solving for Ux, Initial residual = 0.0276542, Final residual = 6.10882e-06, No Iterations 1
DILUPBiCG:  Solving for Uy, Initial residual = 0.0289113, Final residual = 5.41904e-06, No Iterations 1
DILUPBiCG:  Solving for Uz, Initial residual = 0.00984829, Final residual = 1.84453e-06, No Iterations 1
DICPCG:  Solving for p, Initial residual = 0.0104344, Final residual = 0.00086352, No Iterations 3
DICPCG:  Solving for p, Initial residual = 0.000859774, Final residual = 7.38215e-05, No Iterations 7
time step continuity errors : sum local = 2.06631e-08, global = 1.33076e-10, cumulative = 1.54725e-08
DICPCG:  Solving for p, Initial residual = 7.71882e-05, Final residual = 6.83267e-06, No Iterations 68
DICPCG:  Solving for p, Initial residual = 6.84083e-06, Final residual = 6.53937e-07, No Iterations 6
time step continuity errors : sum local = 1.8283e-10, global = -2.2752e-13, cumulative = 1.54723e-08
DICPCG:  Solving for p, Initial residual = 9.24814e-07, Final residual = 9.24814e-07, No Iterations 0
DICPCG:  Solving for p, Initial residual = 9.24814e-07, Final residual = 9.24814e-07, No Iterations 0
time step continuity errors : sum local = 2.58562e-10, global = -9.43721e-13, cumulative = 1.54714e-08
DICPCG:  Solving for p, Initial residual = 9.27268e-07, Final residual = 9.27268e-07, No Iterations 0
DICPCG:  Solving for p, Initial residual = 9.27268e-07, Final residual = 9.27268e-07, No Iterations 0
time step continuity errors : sum local = 2.59248e-10, global = -9.47653e-13, cumulative = 1.54704e-08
ExecutionTime = 6.28 s  ClockTime = 6 s

Time = 0.098

Courant Number mean: 0.00106113 max: 0.00497309

 Coupling...
Starting up LIGGGHTS
Executing command: 'run 100    '
Setting up run at Tue Mar  7 10:02:23 2023

Memory usage per processor = 7.05667 Mbytes
    Step    Atoms 
  359700     1400 
  359800     1400 
Loop time of 0.0396312 on 4 procs for 100 steps with 1400 atoms, finish time Tue Mar  7 10:02:23 2023


Pair  time (%) = 0.0152122 (38.3843)
Neigh time (%) = 0 (0)
Comm  time (%) = 0.00111083 (2.80292)
Outpt time (%) = 0.000215848 (0.544642)
Other time (%) = 0.0230923 (58.2681)

Nlocal:    350 ave 806 max 0 min
Histogram: 2 0 0 0 0 0 0 1 0 1
Nghost:    564.5 ave 1198 max 0 min
Histogram: 2 0 0 0 0 0 0 0 1 1
Neighs:    8424.5 ave 19130 max 0 min
Histogram: 2 0 0 0 0 0 0 1 0 1

Total # of neighbors = 33698
Ave neighs/atom = 24.07
Neighbor list builds = 0
Dangerous builds = 0
Executing command: 'write_restart ../DEM/liggghts.restartCFDEM'
System init for write_restart ...
LIGGGHTS finished

 timeStepFraction() = 1
[1] cellI = 1016
[1] index = 0
[1] Us = (-2.6787e-07 2.08231e-06 -1.61286e-05)
[1] Ur = (-2.84852e-05 2.43154e-05 -0.000500449)
[1] dprim = 0.001
[1] phi = 1
[1] rho = 1000
[1] nuf = 1e-06
[1] voidfraction = 0.491502
[1] Rep = 0
[1] betaP = 156065
[1] drag = (-2.32768e-09 1.98694e-09 -4.08944e-08)
[3] cellI = 1003
[3] index = 1
[3] Us = (-3.12937e-06 -7.58681e-06 -1.73934e-05)
[3] Ur = (2.49922e-05 4.98529e-05 -0.0011192)
[3] dprim = 0.001
[3] phi = 1
[3] rho = 1000
[3] nuf = 1e-06
[3] voidfraction = 0.480113
[3] Rep = 0
[3] betaP = 164388
[3] drag = (2.15115e-09 4.291e-09 -9.63328e-08)

Solver level total Eulerian momentum exchange:
  TotalForceImp:  (-1.80907e-06 -1.7768e-05 0.00019913)
  Warning, these values are based on latest Ksl and Us but prev. iteration U!

DILUPBiCG:  Solving for Ux, Initial residual = 0.0358634, Final residual = 5.09637e-06, No Iterations 1
DILUPBiCG:  Solving for Uy, Initial residual = 0.0372533, Final residual = 4.89452e-06, No Iterations 1
DILUPBiCG:  Solving for Uz, Initial residual = 0.0172347, Final residual = 3.12171e-06, No Iterations 1
DICPCG:  Solving for p, Initial residual = 0.0229303, Final residual = 0.00140232, No Iterations 70
DICPCG:  Solving for p, Initial residual = 0.00181888, Final residual = 0.000143535, No Iterations 5
time step continuity errors : sum local = 3.06956e-08, global = -5.38602e-13, cumulative = 1.54699e-08
DICPCG:  Solving for p, Initial residual = 0.00020734, Final residual = 1.63057e-05, No Iterations 69
DICPCG:  Solving for p, Initial residual = 1.62897e-05, Final residual = 1.27239e-06, No Iterations 6
time step continuity errors : sum local = 2.72093e-10, global = -6.39868e-12, cumulative = 1.54635e-08
DICPCG:  Solving for p, Initial residual = 1.43439e-06, Final residual = 8.49639e-07, No Iterations 1
DICPCG:  Solving for p, Initial residual = 8.49639e-07, Final residual = 8.49639e-07, No Iterations 0
time step continuity errors : sum local = 1.8169e-10, global = -5.6776e-12, cumulative = 1.54578e-08
DICPCG:  Solving for p, Initial residual = 8.49732e-07, Final residual = 8.49732e-07, No Iterations 0
DICPCG:  Solving for p, Initial residual = 8.49732e-07, Final residual = 8.49732e-07, No Iterations 0
time step continuity errors : sum local = 1.81709e-10, global = -5.6771e-12, cumulative = 1.54521e-08
ExecutionTime = 6.34 s  ClockTime = 6 s

Time = 0.099

Courant Number mean: 0.00106013 max: 0.00485803

 Coupling...
Starting up LIGGGHTS
Executing command: 'run 100    '
Setting up run at Tue Mar  7 10:02:23 2023

Memory usage per processor = 7.05667 Mbytes
    Step    Atoms 
  359800     1400 
  359900     1400 
Loop time of 0.0397745 on 4 procs for 100 steps with 1400 atoms, finish time Tue Mar  7 10:02:23 2023


Pair  time (%) = 0.0152415 (38.3198)
Neigh time (%) = 0 (0)
Comm  time (%) = 0.00111272 (2.79757)
Outpt time (%) = 0.000215321 (0.541355)
Other time (%) = 0.0232049 (58.3413)

Nlocal:    350 ave 806 max 0 min
Histogram: 2 0 0 0 0 0 0 1 0 1
Nghost:    564.5 ave 1198 max 0 min
Histogram: 2 0 0 0 0 0 0 0 1 1
Neighs:    8424.5 ave 19130 max 0 min
Histogram: 2 0 0 0 0 0 0 1 0 1

Total # of neighbors = 33698
Ave neighs/atom = 24.07
Neighbor list builds = 0
Dangerous builds = 0
Executing command: 'write_restart ../DEM/liggghts.restartCFDEM'
System init for write_restart ...
LIGGGHTS finished

 timeStepFraction() = 1
[3] cellI = 1003
[3] index = 1
[3] Us = (1.28117e-06 -1.299e-06 -1.03819e-07)
[3] Ur = (2.06363e-05 3.96217e-05 -0.00109885)
[3] dprim = 0.001
[3] phi = 1
[3] rho = 1000
[3] nuf = 1e-06
[3] voidfraction = 0.480116
[3] Rep = 0
[3] betaP = 164349
[3] drag = (1.77582e-09 3.40957e-09 -9.45594e-08)
[1] cellI = 1016
[1] index = 0
[1] Us = (1.00307e-06 -2.61969e-06 -1.31854e-06)
[1] Ur = (-2.59307e-05 2.88036e-05 -0.000518523)
[1] dprim = 0.001
[1] phi = 1
[1] rho = 1000
[1] nuf = 1e-06
[1] voidfraction = 0.491505
[1] Rep = 0
[1] betaP = 156095
[1] drag = (-2.11935e-09 2.35415e-09 -4.23796e-08)

Solver level total Eulerian momentum exchange:
  TotalForceImp:  (-5.48061e-06 -1.6173e-05 0.000295369)
  Warning, these values are based on latest Ksl and Us but prev. iteration U!

DILUPBiCG:  Solving for Ux, Initial residual = 0.0350098, Final residual = 6.16519e-06, No Iterations 1
DILUPBiCG:  Solving for Uy, Initial residual = 0.0319792, Final residual = 4.8703e-06, No Iterations 1
DILUPBiCG:  Solving for Uz, Initial residual = 0.0128428, Final residual = 2.52896e-06, No Iterations 1
DICPCG:  Solving for p, Initial residual = 0.0303397, Final residual = 0.0029027, No Iterations 11
DICPCG:  Solving for p, Initial residual = 0.00288225, Final residual = 0.00026316, No Iterations 68
time step continuity errors : sum local = 5.6372e-08, global = -1.1523e-09, cumulative = 1.42998e-08
DICPCG:  Solving for p, Initial residual = 0.000292994, Final residual = 2.41146e-05, No Iterations 9
DICPCG:  Solving for p, Initial residual = 2.41188e-05, Final residual = 2.38527e-06, No Iterations 24
time step continuity errors : sum local = 5.25221e-10, global = 6.17792e-11, cumulative = 1.43616e-08
DICPCG:  Solving for p, Initial residual = 2.5746e-06, Final residual = 9.65057e-07, No Iterations 30
DICPCG:  Solving for p, Initial residual = 9.65062e-07, Final residual = 9.65062e-07, No Iterations 0
time step continuity errors : sum local = 2.12497e-10, global = 7.72745e-11, cumulative = 1.44389e-08
DICPCG:  Solving for p, Initial residual = 9.67717e-07, Final residual = 9.67717e-07, No Iterations 0
DICPCG:  Solving for p, Initial residual = 9.67717e-07, Final residual = 9.67717e-07, No Iterations 0
time step continuity errors : sum local = 2.13082e-10, global = 7.73613e-11, cumulative = 1.45162e-08
ExecutionTime = 6.4 s  ClockTime = 6 s

Time = 0.1

Courant Number mean: 0.00105967 max: 0.00487141

 Coupling...
Starting up LIGGGHTS
Executing command: 'run 100    '
Setting up run at Tue Mar  7 10:02:23 2023

Memory usage per processor = 7.05667 Mbytes
    Step    Atoms 
  359900     1400 
  360000     1400 
Loop time of 0.0445364 on 4 procs for 100 steps with 1400 atoms, finish time Tue Mar  7 10:02:23 2023


Pair  time (%) = 0.0150316 (33.7512)
Neigh time (%) = 0 (0)
Comm  time (%) = 0.00109296 (2.45409)
Outpt time (%) = 0.00541988 (12.1695)
Other time (%) = 0.022992 (51.6251)

Nlocal:    350 ave 806 max 0 min
Histogram: 2 0 0 0 0 0 0 1 0 1
Nghost:    564.75 ave 1198 max 0 min
Histogram: 2 0 0 0 0 0 0 0 1 1
Neighs:    8424.25 ave 19129 max 0 min
Histogram: 2 0 0 0 0 0 0 1 0 1

Total # of neighbors = 33697
Ave neighs/atom = 24.0693
Neighbor list builds = 0
Dangerous builds = 0
Executing command: 'write_restart ../DEM/liggghts.restartCFDEM'
System init for write_restart ...
LIGGGHTS finished

 timeStepFraction() = 1
[1] cellI = 1016
[1] index = 0
[1] Us = (-2.01173e-06 4.13801e-06 -4.8817e-06)
[1] Ur = (-2.27747e-05 1.98606e-05 -0.000513338)
[1] dprim = 0.001
[1] phi = 1
[1] rho = 1000
[1] nuf = 1e-06
[1] voidfraction = 0.491504
[1] Rep = 0
[1] betaP = 156085
[1] drag = (-1.86129e-09 1.62313e-09 -4.19531e-08)
[3] cellI = 1003
[3] index = 1
[3] Us = (-2.00629e-06 2.48987e-06 -5.5605e-06)
[3] Ur = (2.32824e-05 3.69344e-05 -0.00111162)
[3] dprim = 0.001
[3] phi = 1
[3] rho = 1000
[3] nuf = 1e-06
[3] voidfraction = 0.480115
[3] Rep = 0
[3] betaP = 164372
[3] drag = (2.0038e-09 3.17877e-09 -9.56718e-08)

Solver level total Eulerian momentum exchange:
  TotalForceImp:  (-8.0514e-06 4.19356e-06 0.000347619)
  Warning, these values are based on latest Ksl and Us but prev. iteration U!

DILUPBiCG:  Solving for Ux, Initial residual = 0.035697, Final residual = 6.2273e-06, No Iterations 1
DILUPBiCG:  Solving for Uy, Initial residual = 0.0407006, Final residual = 7.74113e-06, No Iterations 1
DILUPBiCG:  Solving for Uz, Initial residual = 0.0086447, Final residual = 2.48993e-06, No Iterations 1
DICPCG:  Solving for p, Initial residual = 0.027519, Final residual = 0.00260371, No Iterations 53
DICPCG:  Solving for p, Initial residual = 0.00258503, Final residual = 0.000216957, No Iterations 66
time step continuity errors : sum local = 4.82017e-08, global = -2.97988e-10, cumulative = 1.42183e-08
DICPCG:  Solving for p, Initial residual = 0.000235454, Final residual = 2.20825e-05, No Iterations 34
DICPCG:  Solving for p, Initial residual = 2.20835e-05, Final residual = 1.84401e-06, No Iterations 54
time step continuity errors : sum local = 4.61828e-10, global = -7.91817e-12, cumulative = 1.42103e-08
DICPCG:  Solving for p, Initial residual = 2.01731e-06, Final residual = 9.54814e-07, No Iterations 3
DICPCG:  Solving for p, Initial residual = 9.54814e-07, Final residual = 9.54814e-07, No Iterations 0
time step continuity errors : sum local = 2.38987e-10, global = 4.83339e-12, cumulative = 1.42152e-08
DICPCG:  Solving for p, Initial residual = 9.58264e-07, Final residual = 9.58264e-07, No Iterations 0
DICPCG:  Solving for p, Initial residual = 9.58264e-07, Final residual = 9.58264e-07, No Iterations 0
time step continuity errors : sum local = 2.3985e-10, global = 4.90323e-12, cumulative = 1.42201e-08
ExecutionTime = 6.48 s  ClockTime = 6 s

End

Finalising parallel run
