
//   CFDEM_run   //

/home/pse/Filtration_Simulator/examples/uniform/CFDEM/CFD

/*---------------------------------------------------------------------------*\
| =========                 |                                                 |
| \\      /  F ield         | OpenFOAM: The Open Source CFD Toolbox           |
|  \\    /   O peration     | Version:  5.x                                   |
|   \\  /    A nd           | Web:      www.OpenFOAM.org                      |
|    \\/     M anipulation  |                                                 |
\*---------------------------------------------------------------------------*/
Build  : 5.x-7f7d351b741b
Exec   : cfdemSolverPiso -parallel
Date   : Mar 07 2023
Time   : 14:05:12
Host   : "CFDEM1"
PID    : 82562
I/O    : uncollated
Case   : /home/pse/Filtration_Simulator/examples/uniform/CFDEM/CFD
nProcs : 4
Slaves : 
3
(
"CFDEM1.82563"
"CFDEM1.82564"
"CFDEM1.82565"
)

Pstream initialized with:
    floatTransfer      : 0
    nProcsSimpleSum    : 0
    commsType          : nonBlocking
    polling iterations : 0
sigFpe : Enabling floating point exception trapping (FOAM_SIGFPE).
fileModificationChecking : Monitoring run-time modified files using timeStampMaster (fileModificationSkew 10)
allowSystemOperations : Allowing user-supplied system call operations

// * * * * * * * * * * * * * * * * * * * * * * * * * * * * * * * * * * * * * //
Create time

Overriding DimensionedConstants according to controlDict
    c [0 1 -1 0 0 0 0] 2.99792e+08
    G [-1 3 -2 0 0 0 0] 6.67429e-20
    h [1 2 -1 0 0 0 0] 6.62607e-13
    e [0 0 1 0 0 1 0] 1.60218e-07
    me [1 0 0 0 0 0 0] 9.10938e-19
    mp [1 0 0 0 0 0 0] 1.67262e-15
    mu [1 0 0 0 0 0 0] 1.66054e-15
    NA [0 0 0 0 -1 0 0] 6.02214e+23
    k [1 2 -2 -1 0 0 0] 1.38065e-08
    Pstd [1 -1 -2 0 0 0 0] 100
    Tstd [0 0 0 1 0 0 0] 298.15
    hr [1 2 -1 0 0 0 0] 1.05457e-13
    mu0 [1 1 -2 0 0 -2 0] 1.25664e-06
    epsilon0 [-1 -3 4 0 0 2 0] 8.85421e-12
    Z0 [1 2 -3 0 0 -2 0] 376.73
    kappa [1 3 -4 0 0 -2 0] 8.98752e+09
    G0 [-1 -2 3 0 0 2 0] 0.0774812
    KJ [-1 -2 2 0 0 1 0] 483599
    phi0 [1 2 -2 0 0 -1 0] 2.06783e-06
    RK [1 2 -3 0 0 -2 0] 25.8127
    alpha [0 0 0 0 0 0 0] 7.29737
    Rinf [0 -1 0 0 0 0 0] 10973.8
    a0 [0 1 0 0 0 0 0] 5.29177e-05
    re [0 1 0 0 0 0 0] 0.00281795
    Eh [1 2 -2 0 0 0 0] 4.35975
    R [1 2 -2 -1 -1 0 0] 8.31447e+15
    F [0 0 1 0 -1 1 0] 9.64856e+16
    sigma [1 0 -3 -4 0 0 0] 5.67041e-11
    b [0 1 0 1 0 0 0] 2897.77
    c1 [1 4 -3 0 0 0 0] 374176
    c2 [0 1 0 1 0 0 0] 14387.7
Create mesh for time = 0


PISO: Operating solver in PISO mode

Reading field p

Reading physical velocity field U
Note: only if voidfraction at boundary is 1, U is superficial velocity!!!


Reading momentum exchange field Ksl


Reading voidfraction field voidfraction = (Vgas/Vparticle)


Creating density field rho

Reading particle velocity field Us

Reading/calculating face flux field phi

Generating interstitial face flux field phiByVoidfraction

Selecting incompressible transport model Newtonian
Selecting turbulence model type laminar
Selecting laminar stress model Stokes
No finite volume options present


Reading g
Selecting locateModel engine
Selecting dataExchangeModel twoWayMPI
Starting up LIGGGHTS for first time execution
Executing input script '../DEM/liggghts_run.txt'
LIGGGHTS (Version LIGGGHTS-PUBLIC 3.8.0, compiled 2022-08-09-18:54:32 by pse, git commit 86544c3f1215bc9744d7929e3eacf53ba086af9e)
Reading restart file ...
WARNING: Restart file version does not match LIGGGHTS version (../read_restart.cpp:507)
   --> restart file = Version LIGGGHTS-PUBLIC 3.8.0, compiled 2022-08-09-18:52:33 by pse, git commit 86544c3f1215bc9744d7929e3eacf53ba086af9e
   --> LIGGGHTS = Version LIGGGHTS-PUBLIC 3.8.0, compiled 2022-08-09-18:54:32 by pse, git commit 86544c3f1215bc9744d7929e3eacf53ba086af9e
version 3 8
version 3 8
version 3 8
version 3 8
  orthogonal box = (-5 -5 -40) to (5 5 50)
  1 by 1 by 4 MPI processor grid
  1400 atoms
INFO: mesh file (../DEM/stl_file/box.stl) is required, but data will be taken from restart file (../fix_mesh.cpp:417)
Resetting global state of Fix cad Style mesh/surface from restart file info
INFO: mesh file (../DEM/stl_file/inlet.stl) is required, but data will be taken from restart file (../fix_mesh.cpp:417)
Resetting global state of Fix inface Style mesh/surface from restart file info
Resetting global state of Fix n_neighs_mesh_cad Style property/atom from restart file info
Resetting per-atom state of Fix n_neighs_mesh_cad Style property/atom from restart file info
Resetting global state of Fix tracker_cad Style contacthistory/mesh from restart file info
Resetting per-atom state of Fix tracker_cad Style contacthistory/mesh from restart file info
1400 atoms in group nve_group
couple_every as specified in LIGGGHTS is overriden by calling external program (../fix_cfd_coupling.cpp:114)
Resetting global state of Fix contacthistory Style contacthistory from restart file info
Resetting per-atom state of Fix contacthistory Style contacthistory from restart file info
Setting up run at Tue Mar  7 14:05:12 2023

Import and parallelization of mesh cad containing 2 triangle(s) successful
Import and parallelization of mesh inface containing 2 triangle(s) successful
Memory usage per processor = 7.06107 Mbytes
    Step    Atoms 
  350000     1400 
Loop time of 1.662e-06 on 4 procs for 0 steps with 1400 atoms, finish time Tue Mar  7 14:05:12 2023


Pair  time (%) = 0 (0)
Neigh time (%) = 0 (0)
Comm  time (%) = 0 (0)
Outpt time (%) = 0 (0)
Other time (%) = 1.662e-06 (100)

Nlocal:    350 ave 838 max 0 min
Histogram: 2 0 0 0 0 0 1 0 0 1
Nghost:    553 ave 1250 max 0 min
Histogram: 2 0 0 0 0 0 0 1 0 1
Neighs:    7752.5 ave 18422 max 0 min
Histogram: 2 0 0 0 0 0 1 0 0 1

Total # of neighbors = 31010
Ave neighs/atom = 22.15
Neighbor list builds = 0
Dangerous builds = 0
Selecting IOModel basicIO
Selecting probeModel off
Selecting voidFractionModel divided
Selecting averagingModel dense
Selecting clockModel off
start clock measurement at t >20
Selecting smoothingModel off
Selecting meshMotionModel noMeshMotion

CFDEMcoupling version: cfdem-3.8.1
, compatible to LIGGGHTS version: 3.8.0
, compatible to OF version and build: 5.x-commit-538044ac05c4672b37c7df607dca1116fa88df88

You are currently using:
OF version: 5.x
OF build: 5.x-7f7d351b741b
CFDEM build: 3.8.0-3-gb237264-dirty

cg is set to: 1
LIGGGHTS hosts 1 atom types.
If BC are important, please provide volScalarFields -imp/expParticleForces-
ignoring ddt(voidfraction)
Selecting momCoupleModel implicitCouple

implicit momentum exchange field calculate if alphaP larger than : 1
Selecting forceModel GidaspowDrag
 Selecting forceSubModel ImEx
 reading switches:
  looking for treatForceExplicit ...  not found in dict, using default. treatForceExplicit = false
  looking for implForceDEM ...  not found in dict, using default. implForceDEM = false
  looking for verbose ...  found in dict. verbose = true
  looking for interpolation ...  found in dict. interpolation = true
  looking for scalarViscosity ...  not found in dict, using default. scalarViscosity = false

--> FOAM Warning : Please make sure you use the new nomenclature for verbose force model settings, please have a look at the forceSubModel doc.
Selecting forceModel gradPForce
 Selecting forceSubModel ImEx
 reading switches:
  looking for treatForceExplicit ...  not found in dict, using default. treatForceExplicit = true
  looking for verbose ...  not found in dict, using default. verbose = false
  looking for interpolation ...  found in dict. interpolation = true

Selecting forceModel viscForce
 Selecting forceSubModel ImEx
 reading switches:
  looking for treatForceExplicit ...  not found in dict, using default. treatForceExplicit = true
  looking for verbose ...  not found in dict, using default. verbose = false
  looking for interpolation ...  found in dict. interpolation = true
  looking for scalarViscosity ...  not found in dict, using default. scalarViscosity = false

Selecting forceModel fieldStore
Creating field stored_U
Selecting liggghtsCommandModel runLiggghts ,provide dicts, numbered from 0 to n
Selecting liggghtsCommandModel writeLiggghts ,provide dicts, numbered from 0 to n
writeLiggghts: A restart file writeName_write_restart ../DEM/liggghts.restartCFDEM is written.
solving volume averaged Navier Stokes equations of type A
check if Archimedes lift is necessary (depends on pressure formulation)


Starting time loop

--> FOAM Warning : 
    From function void Foam::timeControl::read(const Foam::dictionary&)
    in file db/functionObjects/timeControl/timeControl.C at line 89
    Reading "/home/pse/Filtration_Simulator/examples/uniform/CFDEM/CFD/system/controlDict.functions.probes" from line 125 to line 137
    Using deprecated 'outputControl'
    Please use 'writeControl' with 'writeInterval'
Time = 10

Courant Number mean: 0.01 max: 0.01

 Coupling...
Starting up LIGGGHTS
Executing command: 'run 1000    '
Setting up run at Tue Mar  7 14:05:12 2023

Memory usage per processor = 7.06107 Mbytes
    Step    Atoms 
  350000     1400 
  351000     1400 
Loop time of 0.322068 on 4 procs for 1000 steps with 1400 atoms, finish time Tue Mar  7 14:05:12 2023


Pair  time (%) = 0.120403 (37.3843)
Neigh time (%) = 0 (0)
Comm  time (%) = 0.0102501 (3.18258)
Outpt time (%) = 0.000172364 (0.0535181)
Other time (%) = 0.191243 (59.3796)

Nlocal:    350 ave 838 max 0 min
Histogram: 2 0 0 0 0 0 1 0 0 1
Nghost:    553 ave 1250 max 0 min
Histogram: 2 0 0 0 0 0 0 1 0 1
Neighs:    7752.5 ave 18422 max 0 min
Histogram: 2 0 0 0 0 0 1 0 0 1

Total # of neighbors = 31010
Ave neighs/atom = 22.15
Neighbor list builds = 0
Dangerous builds = 0
LIGGGHTS finished

 timeStepFraction() = 1
[3] cellI = 40
[3] index = 1
[3] Us = (4.66158e-07 3.06194e-07 -6.07262e-07)
[3] Ur = (-4.66158e-07 -3.06194e-07 -0.000999393)
[3] dprim = 1
[3] phi = 1
[3] rho = 1
[3] nuf = 1
[3] voidfraction = 0.538678
[3] Rep = 0
[3] betaP = 128.461
[3] drag = (-3.13548e-05 -2.05953e-05 -0.0672213)
[0] cellI = 40
[0] index = 0
[0] Us = (1.48255e-07 -1.43809e-06 -2.28146e-08)
[0] Ur = (-1.48255e-07 1.43809e-06 -0.000999977)
[0] dprim = 1
[0] phi = 1
[0] rho = 1
[0] nuf = 1
[0] voidfraction = 0.560438
[0] Rep = 0
[0] betaP = 117.649
[0] drag = (-9.13268e-06 8.85879e-05 -0.0615996)

Solver level total Eulerian momentum exchange:
  TotalForceImp:  (-0.739032 -2.55384 144.45)
  Warning, these values are based on latest Ksl and Us but prev. iteration U!

DILUPBiCG:  Solving for Ux, Initial residual = 1, Final residual = 0.00339101, No Iterations 1
DILUPBiCG:  Solving for Uy, Initial residual = 1, Final residual = 0.000762964, No Iterations 1
DILUPBiCG:  Solving for Uz, Initial residual = 1, Final residual = 0.000218627, No Iterations 1
DICPCG:  Solving for p, Initial residual = 1, Final residual = 0.0733969, No Iterations 25
DICPCG:  Solving for p, Initial residual = 1.48429e-05, Final residual = 7.56824e-07, No Iterations 3
time step continuity errors : sum local = 9.61225e-07, global = 5.5095e-08, cumulative = 5.5095e-08
DICPCG:  Solving for p, Initial residual = 0.000167165, Final residual = 1.06409e-05, No Iterations 2
DICPCG:  Solving for p, Initial residual = 1.06401e-05, Final residual = 5.86724e-07, No Iterations 25
time step continuity errors : sum local = 7.45288e-07, global = -2.79631e-08, cumulative = 2.71319e-08
DICPCG:  Solving for p, Initial residual = 1.45056e-05, Final residual = 5.75285e-07, No Iterations 2
DICPCG:  Solving for p, Initial residual = 5.75282e-07, Final residual = 5.75282e-07, No Iterations 0
time step continuity errors : sum local = 7.25188e-07, global = -1.99278e-08, cumulative = 7.20414e-09
DICPCG:  Solving for p, Initial residual = 4.22012e-06, Final residual = 9.37243e-07, No Iterations 1
DICPCG:  Solving for p, Initial residual = 9.37243e-07, Final residual = 9.37243e-07, No Iterations 0
time step continuity errors : sum local = 1.18147e-06, global = -1.03388e-08, cumulative = -3.13462e-09
ExecutionTime = 0.35 s  ClockTime = 0 s

Time = 20

Courant Number mean: 0.0100208 max: 0.0111598

 Coupling...
Starting up LIGGGHTS
Executing command: 'run 1000    '
Setting up run at Tue Mar  7 14:05:12 2023

Memory usage per processor = 7.06107 Mbytes
    Step    Atoms 
  351000     1400 
  352000     1400 
Loop time of 0.344604 on 4 procs for 1000 steps with 1400 atoms, finish time Tue Mar  7 14:05:13 2023


Pair  time (%) = 0.130275 (37.8042)
Neigh time (%) = 0.00104088 (0.302051)
Comm  time (%) = 0.0107996 (3.13392)
Outpt time (%) = 0.000193076 (0.0560284)
Other time (%) = 0.202296 (58.7038)

Nlocal:    350 ave 830 max 0 min
Histogram: 2 0 0 0 0 0 1 0 0 1
Nghost:    553.75 ave 1228 max 0 min
Histogram: 2 0 0 0 0 0 0 0 1 1
Neighs:    7823.5 ave 18250 max 0 min
Histogram: 2 0 0 0 0 0 0 1 0 1

Total # of neighbors = 31294
Ave neighs/atom = 22.3529
Neighbor list builds = 3
Dangerous builds = 0
LIGGGHTS finished

 timeStepFraction() = 1
[3] cellI = 40
[3] index = 1
[3] Us = (0.00030549 0.0003251 0.00249991)
[3] Ur = (-0.000306071 -0.000324018 -0.00395389)
[3] dprim = 1
[3] phi = 1
[3] rho = 1
[3] nuf = 1
[3] voidfraction = 0.523681
[3] Rep = 0
[3] betaP = 136.441
[3] drag = (-0.0218657 -0.0231479 -0.282467)
[0] cellI = 40
[0] index = 0
[0] Us = (0.000640709 -0.000920332 0.00213852)
[0] Ur = (-0.000639601 0.000913617 -0.00370793)
[0] dprim = 1
[0] phi = 1
[0] rho = 1
[0] nuf = 1
[0] voidfraction = 0.545883
[0] Rep = 0
[0] betaP = 124.791
[0] drag = (-0.0417917 0.0596961 -0.242278)

Solver level total Eulerian momentum exchange:
  TotalForceImp:  (102.323 173.336 2844.53)
  Warning, these values are based on latest Ksl and Us but prev. iteration U!

DILUPBiCG:  Solving for Ux, Initial residual = 0.968375, Final residual = 0.0119428, No Iterations 1
DILUPBiCG:  Solving for Uy, Initial residual = 0.984492, Final residual = 0.00301092, No Iterations 1
DILUPBiCG:  Solving for Uz, Initial residual = 0.999583, Final residual = 0.000441164, No Iterations 1
DICPCG:  Solving for p, Initial residual = 0.0108971, Final residual = 0.000910477, No Iterations 25
DICPCG:  Solving for p, Initial residual = 0.000111183, Final residual = 4.47043e-06, No Iterations 3
time step continuity errors : sum local = 4.66325e-05, global = -1.13574e-06, cumulative = -1.13887e-06
DICPCG:  Solving for p, Initial residual = 0.00054745, Final residual = 4.40176e-05, No Iterations 2
DICPCG:  Solving for p, Initial residual = 4.39864e-05, Final residual = 3.60313e-06, No Iterations 8
time step continuity errors : sum local = 3.76095e-05, global = 5.78627e-06, cumulative = 4.6474e-06
DICPCG:  Solving for p, Initial residual = 8.2701e-05, Final residual = 3.46121e-06, No Iterations 2
DICPCG:  Solving for p, Initial residual = 3.46126e-06, Final residual = 3.93057e-07, No Iterations 24
time step continuity errors : sum local = 4.10304e-06, global = 5.09518e-08, cumulative = 4.69835e-06
DICPCG:  Solving for p, Initial residual = 4.3772e-05, Final residual = 3.96948e-06, No Iterations 1
DICPCG:  Solving for p, Initial residual = 3.96951e-06, Final residual = 8.56857e-07, No Iterations 11
time step continuity errors : sum local = 8.84448e-06, global = 2.16764e-08, cumulative = 4.72002e-06
ExecutionTime = 0.7 s  ClockTime = 1 s

Time = 30

Courant Number mean: 0.0210522 max: 0.223492

 Coupling...
Starting up LIGGGHTS
Executing command: 'run 1000    '
Setting up run at Tue Mar  7 14:05:13 2023

Memory usage per processor = 7.06107 Mbytes
    Step    Atoms 
  352000     1400 
  353000     1386 
Loop time of 0.770637 on 4 procs for 1000 steps with 1386 atoms, finish time Tue Mar  7 14:05:13 2023


Pair  time (%) = 0.162249 (21.0539)
Neigh time (%) = 0.15384 (19.9627)
Comm  time (%) = 0.0986249 (12.7978)
Outpt time (%) = 0.000667707 (0.0866435)
Other time (%) = 0.355255 (46.0989)

Nlocal:    346.5 ave 707 max 0 min
Histogram: 2 0 0 0 0 0 0 0 0 2
Nghost:    586.5 ave 1186 max 0 min
Histogram: 2 0 0 0 0 0 0 0 0 2
Neighs:    8630 ave 17848 max 0 min
Histogram: 2 0 0 0 0 0 0 0 0 2

Total # of neighbors = 34520
Ave neighs/atom = 24.9062
Neighbor list builds = 384
Dangerous builds = 0
LIGGGHTS finished

 timeStepFraction() = 1
[3] cellI = 40
[3] index = 1
[3] Us = (0.0166035 -0.0621414 -0.0499783)
[3] Ur = (-0.0164846 0.062445 0.0478926)
[3] dprim = 1
[3] phi = 1
[3] rho = 1
[3] nuf = 1
[3] voidfraction = 0.461386
[3] Rep = 0
[3] betaP = 175.248
[3] drag = (-1.51262 5.72992 4.39461)
[0] cellI = 40
[0] index = 0
[0] Us = (0.00818958 0.0923129 0.00144213)
[0] Ur = (-0.00824406 -0.092069 -0.00425549)
[0] dprim = 1
[0] phi = 1
[0] rho = 1
[0] nuf = 1
[0] voidfraction = 0.469939
[0] Rep = 0
[0] betaP = 169.352
[0] drag = (-0.731021 -8.16399 -0.377345)

Solver level total Eulerian momentum exchange:
  TotalForceImp:  (-6516.95 -11599.9 593.402)
  Warning, these values are based on latest Ksl and Us but prev. iteration U!

DILUPBiCG:  Solving for Ux, Initial residual = 0.98505, Final residual = 0.0266641, No Iterations 1
DILUPBiCG:  Solving for Uy, Initial residual = 0.992301, Final residual = 0.0492631, No Iterations 1
DILUPBiCG:  Solving for Uz, Initial residual = 0.926843, Final residual = 0.0400444, No Iterations 1
DICPCG:  Solving for p, Initial residual = 0.157486, Final residual = 0.0105425, No Iterations 2
DICPCG:  Solving for p, Initial residual = 0.00904576, Final residual = 0.000576263, No Iterations 7
time step continuity errors : sum local = 0.00827587, global = 0.0014853, cumulative = 0.00149002
DICPCG:  Solving for p, Initial residual = 0.0603418, Final residual = 0.00369661, No Iterations 5
DICPCG:  Solving for p, Initial residual = 0.00377971, Final residual = 0.000270861, No Iterations 8
time step continuity errors : sum local = 0.00348503, global = 0.00111208, cumulative = 0.0026021
DICPCG:  Solving for p, Initial residual = 0.0197977, Final residual = 0.000647654, No Iterations 2
DICPCG:  Solving for p, Initial residual = 0.000657793, Final residual = 2.34554e-05, No Iterations 25
time step continuity errors : sum local = 0.000292078, global = 1.1784e-05, cumulative = 0.00261388
DICPCG:  Solving for p, Initial residual = 0.00479167, Final residual = 0.000183708, No Iterations 2
DICPCG:  Solving for p, Initial residual = 0.000184273, Final residual = 2.30212e-07, No Iterations 28
time step continuity errors : sum local = 4.77807e-06, global = 8.4432e-08, cumulative = 0.00261396
ExecutionTime = 1.47 s  ClockTime = 1 s

Time = 40

Courant Number mean: 4.34117 max: 31.9155

 Coupling...
Starting up LIGGGHTS
Executing command: 'run 1000    '
Setting up run at Tue Mar  7 14:05:13 2023

Memory usage per processor = 7.06107 Mbytes
    Step    Atoms 
  353000     1386 
  354000     1251 
Loop time of 1.29855 on 4 procs for 1000 steps with 1251 atoms, finish time Tue Mar  7 14:05:15 2023


Pair  time (%) = 0.133105 (10.2503)
Neigh time (%) = 0.370814 (28.5561)
Comm  time (%) = 0.307264 (23.6621)
Outpt time (%) = 0.000349897 (0.0269453)
Other time (%) = 0.487014 (37.5045)

Nlocal:    312.75 ave 629 max 0 min
Histogram: 2 0 0 0 0 0 0 0 0 2
Nghost:    504 ave 1039 max 0 min
Histogram: 2 0 0 0 0 0 0 0 1 1
Neighs:    4802.25 ave 11971 max 0 min
Histogram: 2 0 0 0 0 0 1 0 0 1

Total # of neighbors = 19209
Ave neighs/atom = 15.3549
Neighbor list builds = 991
Dangerous builds = 988
LIGGGHTS finished

 timeStepFraction() = 1
[2] cellI = 41
[2] index = 0
[2] Us = (12.0726 7.5488 1.85903)
[2] Ur = (-12.0882 -7.55189 -1.85415)
[2] dprim = 1
[2] phi = 1
[2] rho = 1
[2] nuf = 1
[2] voidfraction = 0.375495
[2] Rep = 0
[2] betaP = 274.626
[2] drag = (-1738.21 -1085.92 -266.615)
[1] cellI = 42
[1] index = 1
[1] Us = (13.8721 9.16931 -0.0397003)
[1] Ur = (-13.8882 -9.17185 0.0640387)
[1] dprim = 1
[1] phi = 1
[1] rho = 1
[1] nuf = 1
[1] voidfraction = 0.440658
[1] Rep = 0
[1] betaP = 219.527
[1] drag = (-1596.36 -1054.25 7.36085)

Solver level total Eulerian momentum exchange:
  TotalForceImp:  (2.38523e+06 3.07718e+06 75064)
  Warning, these values are based on latest Ksl and Us but prev. iteration U!

DILUPBiCG:  Solving for Ux, Initial residual = 0.991145, Final residual = 0.0151775, No Iterations 1
DILUPBiCG:  Solving for Uy, Initial residual = 0.98075, Final residual = 0.0306837, No Iterations 1
DILUPBiCG:  Solving for Uz, Initial residual = 0.858461, Final residual = 0.0411819, No Iterations 1
DICPCG:  Solving for p, Initial residual = 0.821015, Final residual = 0.0378012, No Iterations 2
DICPCG:  Solving for p, Initial residual = 0.0223491, Final residual = 0.0019625, No Iterations 22
time step continuity errors : sum local = 0.296632, global = -0.0467796, cumulative = -0.0441656
DICPCG:  Solving for p, Initial residual = 0.00499825, Final residual = 0.000319518, No Iterations 2
DICPCG:  Solving for p, Initial residual = 0.000320906, Final residual = 2.06511e-05, No Iterations 24
time step continuity errors : sum local = 0.0787532, global = 0.000116212, cumulative = -0.0440494
DICPCG:  Solving for p, Initial residual = 0.00439542, Final residual = 0.000246254, No Iterations 24
DICPCG:  Solving for p, Initial residual = 0.00129207, Final residual = 5.64864e-05, No Iterations 3
time step continuity errors : sum local = 0.0160754, global = -0.00110465, cumulative = -0.045154
DICPCG:  Solving for p, Initial residual = 0.00940622, Final residual = 0.00062045, No Iterations 24
DICPCG:  Solving for p, Initial residual = 0.000128793, Final residual = 9.85582e-07, No Iterations 5
time step continuity errors : sum local = 0.00134257, global = -9.93751e-05, cumulative = -0.0452534
ExecutionTime = 2.78 s  ClockTime = 3 s

Time = 50

Courant Number mean: 93.534 max: 466.865

 Coupling...
Starting up LIGGGHTS
Executing command: 'run 1000    '
Setting up run at Tue Mar  7 14:05:15 2023

Memory usage per processor = 7.06107 Mbytes
    Step    Atoms 
  354000     1251 
  355000        0 
Loop time of 0.104608 on 4 procs for 1000 steps with 0 atoms, finish time Tue Mar  7 14:05:15 2023


Pair  time (%) = 0.00752949 (7.1978)
Neigh time (%) = 0.0242055 (23.1392)
Comm  time (%) = 0.0292435 (27.9553)
Outpt time (%) = 3.92075e-06 (0.00374803)
Other time (%) = 0.0436258 (41.7039)

Nlocal:    0 ave 0 max 0 min
Histogram: 4 0 0 0 0 0 0 0 0 0
Nghost:    0 ave 0 max 0 min
Histogram: 4 0 0 0 0 0 0 0 0 0
Neighs:    0 ave 0 max 0 min
Histogram: 4 0 0 0 0 0 0 0 0 0

Total # of neighbors = 0
Neighbor list builds = 217
Dangerous builds = 217
LIGGGHTS finished

 timeStepFraction() = 1

Solver level total Eulerian momentum exchange:
  TotalForceImp:  (0 0 0)
  Warning, these values are based on latest Ksl and Us but prev. iteration U!

DILUPBiCG:  Solving for Ux, Initial residual = 0.724278, Final residual = 0.0477919, No Iterations 3
DILUPBiCG:  Solving for Uy, Initial residual = 0.652517, Final residual = 0.0471964, No Iterations 3
DILUPBiCG:  Solving for Uz, Initial residual = 0.609263, Final residual = 0.0106593, No Iterations 4
DICPCG:  Solving for p, Initial residual = 0.273039, Final residual = 0.0234788, No Iterations 8
DICPCG:  Solving for p, Initial residual = 0.0447783, Final residual = 0.00264499, No Iterations 21
time step continuity errors : sum local = 1.28596, global = -0.0201706, cumulative = -0.065424
DICPCG:  Solving for p, Initial residual = 0.0938393, Final residual = 0.00902543, No Iterations 8
DICPCG:  Solving for p, Initial residual = 0.0120885, Final residual = 0.00099821, No Iterations 20
time step continuity errors : sum local = 0.963835, global = -0.0256399, cumulative = -0.0910639
DICPCG:  Solving for p, Initial residual = 0.166051, Final residual = 0.00622898, No Iterations 2
DICPCG:  Solving for p, Initial residual = 0.00688806, Final residual = 0.00038819, No Iterations 21
time step continuity errors : sum local = 0.0891426, global = 0.000215227, cumulative = -0.0908487
DICPCG:  Solving for p, Initial residual = 0.101485, Final residual = 0.00329676, No Iterations 2
DICPCG:  Solving for p, Initial residual = 0.00341018, Final residual = 4.51428e-07, No Iterations 27
time step continuity errors : sum local = 8.69179e-05, global = 4.21578e-06, cumulative = -0.0908445
ExecutionTime = 2.89 s  ClockTime = 3 s

Time = 60

Courant Number mean: 107.982 max: 403.047

 Coupling...
Starting up LIGGGHTS
Executing command: 'run 1000    '
Setting up run at Tue Mar  7 14:05:15 2023

Memory usage per processor = 7.06116 Mbytes
    Step    Atoms 
  355000        0 
  356000        0 
Loop time of 0.00458649 on 4 procs for 1000 steps with 0 atoms, finish time Tue Mar  7 14:05:15 2023


Pair  time (%) = 0.000205328 (4.4768)
Neigh time (%) = 0 (0)
Comm  time (%) = 0.000120726 (2.63221)
Outpt time (%) = 2.1415e-06 (0.0466914)
Other time (%) = 0.0042583 (92.8443)

Nlocal:    0 ave 0 max 0 min
Histogram: 4 0 0 0 0 0 0 0 0 0
Nghost:    0 ave 0 max 0 min
Histogram: 4 0 0 0 0 0 0 0 0 0
Neighs:    0 ave 0 max 0 min
Histogram: 4 0 0 0 0 0 0 0 0 0

Total # of neighbors = 0
Neighbor list builds = 0
Dangerous builds = 0
LIGGGHTS finished

 timeStepFraction() = 1

Solver level total Eulerian momentum exchange:
  TotalForceImp:  (0 0 0)
  Warning, these values are based on latest Ksl and Us but prev. iteration U!

DILUPBiCG:  Solving for Ux, Initial residual = 0.529014, Final residual = 0.0372933, No Iterations 3
DILUPBiCG:  Solving for Uy, Initial residual = 0.483431, Final residual = 0.00514198, No Iterations 4
DILUPBiCG:  Solving for Uz, Initial residual = 0.360783, Final residual = 0.0206873, No Iterations 3
DICPCG:  Solving for p, Initial residual = 0.423483, Final residual = 0.0393263, No Iterations 4
DICPCG:  Solving for p, Initial residual = 0.038184, Final residual = 0.00339175, No Iterations 12
time step continuity errors : sum local = 0.356968, global = 0.0629844, cumulative = -0.02786
DICPCG:  Solving for p, Initial residual = 0.23042, Final residual = 0.0195347, No Iterations 7
DICPCG:  Solving for p, Initial residual = 0.0251986, Final residual = 0.00118045, No Iterations 22
time step continuity errors : sum local = 0.0983571, global = -0.000127244, cumulative = -0.0279873
DICPCG:  Solving for p, Initial residual = 0.12577, Final residual = 0.00488013, No Iterations 2
DICPCG:  Solving for p, Initial residual = 0.00502579, Final residual = 0.000420879, No Iterations 18
time step continuity errors : sum local = 0.0252494, global = -0.00315466, cumulative = -0.0311419
DICPCG:  Solving for p, Initial residual = 0.105355, Final residual = 0.00610775, No Iterations 2
DICPCG:  Solving for p, Initial residual = 0.00641408, Final residual = 5.73977e-07, No Iterations 28
time step continuity errors : sum local = 2.25842e-05, global = 2.58285e-07, cumulative = -0.0311417
ExecutionTime = 2.9 s  ClockTime = 3 s

Time = 70

Courant Number mean: 114.808 max: 428.143

 Coupling...
Starting up LIGGGHTS
Executing command: 'run 1000    '
Setting up run at Tue Mar  7 14:05:15 2023

Memory usage per processor = 7.06116 Mbytes
    Step    Atoms 
  356000        0 
  357000        0 
Loop time of 0.00462466 on 4 procs for 1000 steps with 0 atoms, finish time Tue Mar  7 14:05:15 2023


Pair  time (%) = 0.000201934 (4.36647)
Neigh time (%) = 0 (0)
Comm  time (%) = 0.000121472 (2.62662)
Outpt time (%) = 3.634e-06 (0.0785788)
Other time (%) = 0.00429762 (92.9283)

Nlocal:    0 ave 0 max 0 min
Histogram: 4 0 0 0 0 0 0 0 0 0
Nghost:    0 ave 0 max 0 min
Histogram: 4 0 0 0 0 0 0 0 0 0
Neighs:    0 ave 0 max 0 min
Histogram: 4 0 0 0 0 0 0 0 0 0

Total # of neighbors = 0
Neighbor list builds = 0
Dangerous builds = 0
LIGGGHTS finished

 timeStepFraction() = 1

Solver level total Eulerian momentum exchange:
  TotalForceImp:  (0 0 0)
  Warning, these values are based on latest Ksl and Us but prev. iteration U!

DILUPBiCG:  Solving for Ux, Initial residual = 0.37909, Final residual = 0.0220003, No Iterations 2
DILUPBiCG:  Solving for Uy, Initial residual = 0.362319, Final residual = 0.0217476, No Iterations 2
DILUPBiCG:  Solving for Uz, Initial residual = 0.257395, Final residual = 0.0175635, No Iterations 2
DICPCG:  Solving for p, Initial residual = 0.609688, Final residual = 0.0396404, No Iterations 3
DICPCG:  Solving for p, Initial residual = 0.0486197, Final residual = 0.00289899, No Iterations 22
time step continuity errors : sum local = 0.0969817, global = 0.00410535, cumulative = -0.0270363
DICPCG:  Solving for p, Initial residual = 0.259566, Final residual = 0.0190526, No Iterations 3
DICPCG:  Solving for p, Initial residual = 0.0215691, Final residual = 0.00150565, No Iterations 22
time step continuity errors : sum local = 0.0682867, global = -0.00378192, cumulative = -0.0308183
DICPCG:  Solving for p, Initial residual = 0.099095, Final residual = 0.00743693, No Iterations 2
DICPCG:  Solving for p, Initial residual = 0.00742497, Final residual = 0.00047974, No Iterations 21
time step continuity errors : sum local = 0.0161986, global = -7.43955e-05, cumulative = -0.0308927
DICPCG:  Solving for p, Initial residual = 0.047866, Final residual = 0.00375921, No Iterations 2
DICPCG:  Solving for p, Initial residual = 0.00370983, Final residual = 5.82094e-07, No Iterations 28
time step continuity errors : sum local = 2.20692e-05, global = -1.56371e-07, cumulative = -0.0308928
ExecutionTime = 2.9 s  ClockTime = 3 s

Time = 80

Courant Number mean: 85.0261 max: 352.551

 Coupling...
Starting up LIGGGHTS
Executing command: 'run 1000    '
Setting up run at Tue Mar  7 14:05:15 2023

Memory usage per processor = 7.06116 Mbytes
    Step    Atoms 
  357000        0 
  358000        0 
Loop time of 0.00459636 on 4 procs for 1000 steps with 0 atoms, finish time Tue Mar  7 14:05:15 2023


Pair  time (%) = 0.000211532 (4.60217)
Neigh time (%) = 0 (0)
Comm  time (%) = 0.000124233 (2.70286)
Outpt time (%) = 2.20625e-06 (0.0479999)
Other time (%) = 0.00425839 (92.647)

Nlocal:    0 ave 0 max 0 min
Histogram: 4 0 0 0 0 0 0 0 0 0
Nghost:    0 ave 0 max 0 min
Histogram: 4 0 0 0 0 0 0 0 0 0
Neighs:    0 ave 0 max 0 min
Histogram: 4 0 0 0 0 0 0 0 0 0

Total # of neighbors = 0
Neighbor list builds = 0
Dangerous builds = 0
LIGGGHTS finished

 timeStepFraction() = 1

Solver level total Eulerian momentum exchange:
  TotalForceImp:  (0 0 0)
  Warning, these values are based on latest Ksl and Us but prev. iteration U!

DILUPBiCG:  Solving for Ux, Initial residual = 0.250771, Final residual = 0.0167565, No Iterations 2
DILUPBiCG:  Solving for Uy, Initial residual = 0.242816, Final residual = 0.0138331, No Iterations 2
DILUPBiCG:  Solving for Uz, Initial residual = 0.256356, Final residual = 0.00910002, No Iterations 2
DICPCG:  Solving for p, Initial residual = 0.328964, Final residual = 0.0249257, No Iterations 4
DICPCG:  Solving for p, Initial residual = 0.0246723, Final residual = 0.00197022, No Iterations 16
time step continuity errors : sum local = 0.115434, global = -0.00656584, cumulative = -0.0374586
DICPCG:  Solving for p, Initial residual = 0.308509, Final residual = 0.02794, No Iterations 4
DICPCG:  Solving for p, Initial residual = 0.0338749, Final residual = 0.0025644, No Iterations 21
time step continuity errors : sum local = 0.0772604, global = -0.00350659, cumulative = -0.0409652
DICPCG:  Solving for p, Initial residual = 0.0936347, Final residual = 0.00468855, No Iterations 2
DICPCG:  Solving for p, Initial residual = 0.00474629, Final residual = 0.000453647, No Iterations 21
time step continuity errors : sum local = 0.0145133, global = -0.00107224, cumulative = -0.0420375
DICPCG:  Solving for p, Initial residual = 0.0410448, Final residual = 0.00281856, No Iterations 1
DICPCG:  Solving for p, Initial residual = 0.00281973, Final residual = 5.8783e-07, No Iterations 28
time step continuity errors : sum local = 1.98959e-05, global = 5.40201e-07, cumulative = -0.0420369
ExecutionTime = 2.91 s  ClockTime = 3 s

Time = 90

Courant Number mean: 61.4994 max: 300.037

 Coupling...
Starting up LIGGGHTS
Executing command: 'run 1000    '
Setting up run at Tue Mar  7 14:05:15 2023

Memory usage per processor = 7.06116 Mbytes
    Step    Atoms 
  358000        0 
  359000        0 
Loop time of 0.004614 on 4 procs for 1000 steps with 0 atoms, finish time Tue Mar  7 14:05:15 2023


Pair  time (%) = 0.000200832 (4.35266)
Neigh time (%) = 0 (0)
Comm  time (%) = 0.000124379 (2.69568)
Outpt time (%) = 2.2615e-06 (0.0490139)
Other time (%) = 0.00428653 (92.9026)

Nlocal:    0 ave 0 max 0 min
Histogram: 4 0 0 0 0 0 0 0 0 0
Nghost:    0 ave 0 max 0 min
Histogram: 4 0 0 0 0 0 0 0 0 0
Neighs:    0 ave 0 max 0 min
Histogram: 4 0 0 0 0 0 0 0 0 0

Total # of neighbors = 0
Neighbor list builds = 0
Dangerous builds = 0
LIGGGHTS finished

 timeStepFraction() = 1

Solver level total Eulerian momentum exchange:
  TotalForceImp:  (0 0 0)
  Warning, these values are based on latest Ksl and Us but prev. iteration U!

DILUPBiCG:  Solving for Ux, Initial residual = 0.27031, Final residual = 0.0172319, No Iterations 2
DILUPBiCG:  Solving for Uy, Initial residual = 0.196972, Final residual = 0.00877822, No Iterations 2
DILUPBiCG:  Solving for Uz, Initial residual = 0.177206, Final residual = 0.0133087, No Iterations 2
DICPCG:  Solving for p, Initial residual = 0.313527, Final residual = 0.0291945, No Iterations 6
DICPCG:  Solving for p, Initial residual = 0.0294585, Final residual = 0.00203404, No Iterations 9
time step continuity errors : sum local = 0.121049, global = -0.015978, cumulative = -0.058015
DICPCG:  Solving for p, Initial residual = 0.216223, Final residual = 0.017324, No Iterations 8
DICPCG:  Solving for p, Initial residual = 0.0193213, Final residual = 0.00167318, No Iterations 19
time step continuity errors : sum local = 0.0766283, global = -0.00716229, cumulative = -0.0651773
DICPCG:  Solving for p, Initial residual = 0.0722982, Final residual = 0.00541874, No Iterations 2
DICPCG:  Solving for p, Initial residual = 0.00552291, Final residual = 0.00038868, No Iterations 18
time step continuity errors : sum local = 0.0124743, global = 0.00166117, cumulative = -0.0635161
DICPCG:  Solving for p, Initial residual = 0.0449236, Final residual = 0.0037036, No Iterations 8
DICPCG:  Solving for p, Initial residual = 0.00384287, Final residual = 2.50434e-07, No Iterations 28
time step continuity errors : sum local = 6.68367e-06, global = -3.07467e-07, cumulative = -0.0635164
ExecutionTime = 2.92 s  ClockTime = 3 s

Time = 100

Courant Number mean: 62.4497 max: 238.144

 Coupling...
Starting up LIGGGHTS
Executing command: 'run 1000    '
Setting up run at Tue Mar  7 14:05:15 2023

Memory usage per processor = 7.06116 Mbytes
    Step    Atoms 
  359000        0 
  360000        0 
Loop time of 0.00547269 on 4 procs for 1000 steps with 0 atoms, finish time Tue Mar  7 14:05:15 2023


Pair  time (%) = 0.000208229 (3.80487)
Neigh time (%) = 0 (0)
Comm  time (%) = 0.000123359 (2.25409)
Outpt time (%) = 0.000846202 (15.4623)
Other time (%) = 0.0042949 (78.4788)

Nlocal:    0 ave 0 max 0 min
Histogram: 4 0 0 0 0 0 0 0 0 0
Nghost:    0 ave 0 max 0 min
Histogram: 4 0 0 0 0 0 0 0 0 0
Neighs:    0 ave 0 max 0 min
Histogram: 4 0 0 0 0 0 0 0 0 0

Total # of neighbors = 0
Neighbor list builds = 0
Dangerous builds = 0
Executing command: 'write_restart ../DEM/liggghts.restartCFDEM'
System init for write_restart ...
LIGGGHTS finished

 timeStepFraction() = 1

Solver level total Eulerian momentum exchange:
  TotalForceImp:  (0 0 0)
  Warning, these values are based on latest Ksl and Us but prev. iteration U!

DILUPBiCG:  Solving for Ux, Initial residual = 0.239295, Final residual = 0.00773823, No Iterations 2
DILUPBiCG:  Solving for Uy, Initial residual = 0.184478, Final residual = 0.0089897, No Iterations 2
DILUPBiCG:  Solving for Uz, Initial residual = 0.142041, Final residual = 0.00307801, No Iterations 3
DICPCG:  Solving for p, Initial residual = 0.345625, Final residual = 0.0345465, No Iterations 19
DICPCG:  Solving for p, Initial residual = 0.0127723, Final residual = 0.00109436, No Iterations 8
time step continuity errors : sum local = 0.111697, global = 0.0356304, cumulative = -0.027886
DICPCG:  Solving for p, Initial residual = 0.0826282, Final residual = 0.00821524, No Iterations 11
DICPCG:  Solving for p, Initial residual = 0.0101577, Final residual = 0.000786485, No Iterations 21
time step continuity errors : sum local = 0.062937, global = -0.00274702, cumulative = -0.030633
DICPCG:  Solving for p, Initial residual = 0.0534221, Final residual = 0.00306557, No Iterations 2
DICPCG:  Solving for p, Initial residual = 0.00309211, Final residual = 0.000251288, No Iterations 21
time step continuity errors : sum local = 0.00902897, global = 0.000367959, cumulative = -0.0302651
DICPCG:  Solving for p, Initial residual = 0.0284624, Final residual = 0.00116843, No Iterations 2
DICPCG:  Solving for p, Initial residual = 0.00117089, Final residual = 8.62713e-07, No Iterations 26
time step continuity errors : sum local = 2.58461e-05, global = 7.94194e-07, cumulative = -0.0302643
ExecutionTime = 2.93 s  ClockTime = 3 s

Time = 110

Courant Number mean: 54.4715 max: 190.168

 Coupling...
Starting up LIGGGHTS
Executing command: 'run 1000    '
Setting up run at Tue Mar  7 14:05:15 2023

Memory usage per processor = 7.06116 Mbytes
    Step    Atoms 
  360000        0 
  361000        0 
Loop time of 0.00461341 on 4 procs for 1000 steps with 0 atoms, finish time Tue Mar  7 14:05:15 2023


Pair  time (%) = 0.000206939 (4.48561)
Neigh time (%) = 0 (0)
Comm  time (%) = 0.000123811 (2.68372)
Outpt time (%) = 2.186e-06 (0.0473836)
Other time (%) = 0.00428047 (92.7833)

Nlocal:    0 ave 0 max 0 min
Histogram: 4 0 0 0 0 0 0 0 0 0
Nghost:    0 ave 0 max 0 min
Histogram: 4 0 0 0 0 0 0 0 0 0
Neighs:    0 ave 0 max 0 min
Histogram: 4 0 0 0 0 0 0 0 0 0

Total # of neighbors = 0
Neighbor list builds = 0
Dangerous builds = 0
Executing command: 'write_restart ../DEM/liggghts.restartCFDEM'
System init for write_restart ...
LIGGGHTS finished

 timeStepFraction() = 1

Solver level total Eulerian momentum exchange:
  TotalForceImp:  (0 0 0)
  Warning, these values are based on latest Ksl and Us but prev. iteration U!

DILUPBiCG:  Solving for Ux, Initial residual = 0.163022, Final residual = 0.0135995, No Iterations 2
DILUPBiCG:  Solving for Uy, Initial residual = 0.154574, Final residual = 0.0143895, No Iterations 2
DILUPBiCG:  Solving for Uz, Initial residual = 0.0823593, Final residual = 0.00305524, No Iterations 2
DICPCG:  Solving for p, Initial residual = 0.15861, Final residual = 0.0122648, No Iterations 14
DICPCG:  Solving for p, Initial residual = 0.0104757, Final residual = 0.000844911, No Iterations 20
time step continuity errors : sum local = 0.0334686, global = 0.00185494, cumulative = -0.0284094
DICPCG:  Solving for p, Initial residual = 0.0745502, Final residual = 0.0049193, No Iterations 14
DICPCG:  Solving for p, Initial residual = 0.0195602, Final residual = 0.00140674, No Iterations 11
time step continuity errors : sum local = 0.015863, global = 0.00461691, cumulative = -0.0237924
DICPCG:  Solving for p, Initial residual = 0.0628975, Final residual = 0.00212261, No Iterations 2
DICPCG:  Solving for p, Initial residual = 0.00213908, Final residual = 0.000158012, No Iterations 21
time step continuity errors : sum local = 0.00188687, global = -8.72323e-06, cumulative = -0.0238012
DICPCG:  Solving for p, Initial residual = 0.022425, Final residual = 0.00055023, No Iterations 2
DICPCG:  Solving for p, Initial residual = 0.000550287, Final residual = 5.6876e-07, No Iterations 23
time step continuity errors : sum local = 8.2175e-06, global = -1.22616e-07, cumulative = -0.0238013
ExecutionTime = 2.94 s  ClockTime = 3 s

Time = 120

Courant Number mean: 47.2499 max: 161.695

 Coupling...
Starting up LIGGGHTS
Executing command: 'run 1000    '
Setting up run at Tue Mar  7 14:05:15 2023

Memory usage per processor = 7.06116 Mbytes
    Step    Atoms 
  361000        0 
  362000        0 
Loop time of 0.00463268 on 4 procs for 1000 steps with 0 atoms, finish time Tue Mar  7 14:05:15 2023


Pair  time (%) = 0.000211364 (4.56245)
Neigh time (%) = 0 (0)
Comm  time (%) = 0.000124155 (2.67998)
Outpt time (%) = 2.419e-06 (0.052216)
Other time (%) = 0.00429474 (92.7053)

Nlocal:    0 ave 0 max 0 min
Histogram: 4 0 0 0 0 0 0 0 0 0
Nghost:    0 ave 0 max 0 min
Histogram: 4 0 0 0 0 0 0 0 0 0
Neighs:    0 ave 0 max 0 min
Histogram: 4 0 0 0 0 0 0 0 0 0

Total # of neighbors = 0
Neighbor list builds = 0
Dangerous builds = 0
Executing command: 'write_restart ../DEM/liggghts.restartCFDEM'
System init for write_restart ...
LIGGGHTS finished

 timeStepFraction() = 1

Solver level total Eulerian momentum exchange:
  TotalForceImp:  (0 0 0)
  Warning, these values are based on latest Ksl and Us but prev. iteration U!

DILUPBiCG:  Solving for Ux, Initial residual = 0.14906, Final residual = 0.00381628, No Iterations 2
DILUPBiCG:  Solving for Uy, Initial residual = 0.140025, Final residual = 0.00136231, No Iterations 3
DILUPBiCG:  Solving for Uz, Initial residual = 0.0557352, Final residual = 0.00166414, No Iterations 2
DICPCG:  Solving for p, Initial residual = 0.213449, Final residual = 0.0182807, No Iterations 4
DICPCG:  Solving for p, Initial residual = 0.0196769, Final residual = 0.00117868, No Iterations 20
time step continuity errors : sum local = 0.0167176, global = 0.00148232, cumulative = -0.022319
DICPCG:  Solving for p, Initial residual = 0.375304, Final residual = 0.0371611, No Iterations 4
DICPCG:  Solving for p, Initial residual = 0.0397577, Final residual = 0.003713, No Iterations 17
time step continuity errors : sum local = 0.0177511, global = 0.00306077, cumulative = -0.0192582
DICPCG:  Solving for p, Initial residual = 0.0280631, Final residual = 0.00140063, No Iterations 2
DICPCG:  Solving for p, Initial residual = 0.00140176, Final residual = 6.42534e-05, No Iterations 13
time step continuity errors : sum local = 0.00076888, global = 7.45305e-05, cumulative = -0.0191837
DICPCG:  Solving for p, Initial residual = 0.0102016, Final residual = 0.000787324, No Iterations 2
DICPCG:  Solving for p, Initial residual = 0.00078753, Final residual = 8.6258e-07, No Iterations 25
time step continuity errors : sum local = 1.034e-05, global = 1.78276e-07, cumulative = -0.0191835
ExecutionTime = 2.95 s  ClockTime = 3 s

Time = 130

Courant Number mean: 41.7768 max: 147.939

 Coupling...
Starting up LIGGGHTS
Executing command: 'run 1000    '
Setting up run at Tue Mar  7 14:05:15 2023

Memory usage per processor = 7.06116 Mbytes
    Step    Atoms 
  362000        0 
  363000        0 
Loop time of 0.00482296 on 4 procs for 1000 steps with 0 atoms, finish time Tue Mar  7 14:05:15 2023


Pair  time (%) = 0.000203524 (4.2199)
Neigh time (%) = 0 (0)
Comm  time (%) = 0.000125766 (2.60765)
Outpt time (%) = 2.37475e-06 (0.0492385)
Other time (%) = 0.00449129 (93.1232)

Nlocal:    0 ave 0 max 0 min
Histogram: 4 0 0 0 0 0 0 0 0 0
Nghost:    0 ave 0 max 0 min
Histogram: 4 0 0 0 0 0 0 0 0 0
Neighs:    0 ave 0 max 0 min
Histogram: 4 0 0 0 0 0 0 0 0 0

Total # of neighbors = 0
Neighbor list builds = 0
Dangerous builds = 0
Executing command: 'write_restart ../DEM/liggghts.restartCFDEM'
System init for write_restart ...
LIGGGHTS finished

 timeStepFraction() = 1

Solver level total Eulerian momentum exchange:
  TotalForceImp:  (0 0 0)
  Warning, these values are based on latest Ksl and Us but prev. iteration U!

DILUPBiCG:  Solving for Ux, Initial residual = 0.137092, Final residual = 0.00130921, No Iterations 3
DILUPBiCG:  Solving for Uy, Initial residual = 0.124255, Final residual = 0.00317707, No Iterations 2
DILUPBiCG:  Solving for Uz, Initial residual = 0.047711, Final residual = 0.000798828, No Iterations 2
DICPCG:  Solving for p, Initial residual = 0.191794, Final residual = 0.0185306, No Iterations 4
DICPCG:  Solving for p, Initial residual = 0.019474, Final residual = 0.00133963, No Iterations 20
time step continuity errors : sum local = 0.0164184, global = 0.00132464, cumulative = -0.0178589
DICPCG:  Solving for p, Initial residual = 0.223847, Final residual = 0.0209769, No Iterations 5
DICPCG:  Solving for p, Initial residual = 0.0211368, Final residual = 0.00149864, No Iterations 19
time step continuity errors : sum local = 0.00948042, global = -0.000283844, cumulative = -0.0181427
DICPCG:  Solving for p, Initial residual = 0.0239687, Final residual = 0.00133947, No Iterations 2
DICPCG:  Solving for p, Initial residual = 0.00134688, Final residual = 0.000120003, No Iterations 12
time step continuity errors : sum local = 0.00122051, global = 0.000192271, cumulative = -0.0179504
DICPCG:  Solving for p, Initial residual = 0.00899497, Final residual = 0.000572801, No Iterations 2
DICPCG:  Solving for p, Initial residual = 0.000573236, Final residual = 5.89321e-07, No Iterations 25
time step continuity errors : sum local = 6.00038e-06, global = -4.67423e-07, cumulative = -0.0179509
ExecutionTime = 2.96 s  ClockTime = 3 s

Time = 140

Courant Number mean: 37.9453 max: 141.486

 Coupling...
Starting up LIGGGHTS
Executing command: 'run 1000    '
Setting up run at Tue Mar  7 14:05:15 2023

Memory usage per processor = 7.06116 Mbytes
    Step    Atoms 
  363000        0 
  364000        0 
Loop time of 0.00459036 on 4 procs for 1000 steps with 0 atoms, finish time Tue Mar  7 14:05:15 2023


Pair  time (%) = 0.000203781 (4.43932)
Neigh time (%) = 0 (0)
Comm  time (%) = 0.000124542 (2.71313)
Outpt time (%) = 2.31075e-06 (0.0503392)
Other time (%) = 0.00425972 (92.7972)

Nlocal:    0 ave 0 max 0 min
Histogram: 4 0 0 0 0 0 0 0 0 0
Nghost:    0 ave 0 max 0 min
Histogram: 4 0 0 0 0 0 0 0 0 0
Neighs:    0 ave 0 max 0 min
Histogram: 4 0 0 0 0 0 0 0 0 0

Total # of neighbors = 0
Neighbor list builds = 0
Dangerous builds = 0
Executing command: 'write_restart ../DEM/liggghts.restartCFDEM'
System init for write_restart ...
LIGGGHTS finished

 timeStepFraction() = 1

Solver level total Eulerian momentum exchange:
  TotalForceImp:  (0 0 0)
  Warning, these values are based on latest Ksl and Us but prev. iteration U!

DILUPBiCG:  Solving for Ux, Initial residual = 0.124034, Final residual = 0.00116328, No Iterations 3
DILUPBiCG:  Solving for Uy, Initial residual = 0.121382, Final residual = 0.0113231, No Iterations 1
DILUPBiCG:  Solving for Uz, Initial residual = 0.0434008, Final residual = 0.000531456, No Iterations 2
DICPCG:  Solving for p, Initial residual = 0.131279, Final residual = 0.0080933, No Iterations 5
DICPCG:  Solving for p, Initial residual = 0.00855753, Final residual = 0.00057329, No Iterations 17
time step continuity errors : sum local = 0.00606938, global = 0.00024557, cumulative = -0.0177053
DICPCG:  Solving for p, Initial residual = 0.156447, Final residual = 0.0105879, No Iterations 5
DICPCG:  Solving for p, Initial residual = 0.0104013, Final residual = 0.000877933, No Iterations 20
time step continuity errors : sum local = 0.00505876, global = 2.48955e-05, cumulative = -0.0176804
DICPCG:  Solving for p, Initial residual = 0.0166594, Final residual = 0.000966454, No Iterations 2
DICPCG:  Solving for p, Initial residual = 0.000967279, Final residual = 7.38035e-05, No Iterations 21
time step continuity errors : sum local = 0.000711344, global = 5.417e-05, cumulative = -0.0176263
DICPCG:  Solving for p, Initial residual = 0.00659933, Final residual = 0.000438984, No Iterations 2
DICPCG:  Solving for p, Initial residual = 0.000438943, Final residual = 9.0729e-07, No Iterations 24
time step continuity errors : sum local = 8.95238e-06, global = 3.21505e-07, cumulative = -0.0176259
ExecutionTime = 2.96 s  ClockTime = 3 s

Time = 150

Courant Number mean: 35.0672 max: 136.243

 Coupling...
Starting up LIGGGHTS
Executing command: 'run 1000    '
Setting up run at Tue Mar  7 14:05:15 2023

Memory usage per processor = 7.06116 Mbytes
    Step    Atoms 
  364000        0 
  365000        0 
Loop time of 0.00460862 on 4 procs for 1000 steps with 0 atoms, finish time Tue Mar  7 14:05:15 2023


Pair  time (%) = 0.000209298 (4.54146)
Neigh time (%) = 0 (0)
Comm  time (%) = 0.000124366 (2.69854)
Outpt time (%) = 2.40575e-06 (0.0522011)
Other time (%) = 0.00427255 (92.7078)

Nlocal:    0 ave 0 max 0 min
Histogram: 4 0 0 0 0 0 0 0 0 0
Nghost:    0 ave 0 max 0 min
Histogram: 4 0 0 0 0 0 0 0 0 0
Neighs:    0 ave 0 max 0 min
Histogram: 4 0 0 0 0 0 0 0 0 0

Total # of neighbors = 0
Neighbor list builds = 0
Dangerous builds = 0
Executing command: 'write_restart ../DEM/liggghts.restartCFDEM'
System init for write_restart ...
LIGGGHTS finished

 timeStepFraction() = 1

Solver level total Eulerian momentum exchange:
  TotalForceImp:  (0 0 0)
  Warning, these values are based on latest Ksl and Us but prev. iteration U!

DILUPBiCG:  Solving for Ux, Initial residual = 0.101615, Final residual = 0.0013182, No Iterations 2
DILUPBiCG:  Solving for Uy, Initial residual = 0.114375, Final residual = 0.0103153, No Iterations 1
DILUPBiCG:  Solving for Uz, Initial residual = 0.0411862, Final residual = 0.000304371, No Iterations 2
DICPCG:  Solving for p, Initial residual = 0.111568, Final residual = 0.0100942, No Iterations 16
DICPCG:  Solving for p, Initial residual = 0.0181736, Final residual = 0.00156897, No Iterations 13
time step continuity errors : sum local = 0.00901788, global = -0.00248857, cumulative = -0.0201145
DICPCG:  Solving for p, Initial residual = 0.110158, Final residual = 0.00897832, No Iterations 13
DICPCG:  Solving for p, Initial residual = 0.00857928, Final residual = 0.00034485, No Iterations 20
time step continuity errors : sum local = 0.00221613, global = 0.00010999, cumulative = -0.0200045
DICPCG:  Solving for p, Initial residual = 0.0170852, Final residual = 0.00103233, No Iterations 2
DICPCG:  Solving for p, Initial residual = 0.00103033, Final residual = 4.94958e-05, No Iterations 20
time step continuity errors : sum local = 0.000361907, global = -6.72463e-06, cumulative = -0.0200112
DICPCG:  Solving for p, Initial residual = 0.00660089, Final residual = 0.00042458, No Iterations 2
DICPCG:  Solving for p, Initial residual = 0.000424761, Final residual = 3.94686e-07, No Iterations 25
time step continuity errors : sum local = 3.19003e-06, global = -1.40359e-07, cumulative = -0.0200114
ExecutionTime = 2.97 s  ClockTime = 3 s

Time = 160

Courant Number mean: 32.5367 max: 130.595

 Coupling...
Starting up LIGGGHTS
Executing command: 'run 1000    '
Setting up run at Tue Mar  7 14:05:15 2023

Memory usage per processor = 7.06116 Mbytes
    Step    Atoms 
  365000        0 
  366000        0 
Loop time of 0.00477875 on 4 procs for 1000 steps with 0 atoms, finish time Tue Mar  7 14:05:15 2023


Pair  time (%) = 0.000213487 (4.46743)
Neigh time (%) = 0 (0)
Comm  time (%) = 0.000126007 (2.63682)
Outpt time (%) = 2.6055e-06 (0.0545226)
Other time (%) = 0.00443665 (92.8412)

Nlocal:    0 ave 0 max 0 min
Histogram: 4 0 0 0 0 0 0 0 0 0
Nghost:    0 ave 0 max 0 min
Histogram: 4 0 0 0 0 0 0 0 0 0
Neighs:    0 ave 0 max 0 min
Histogram: 4 0 0 0 0 0 0 0 0 0

Total # of neighbors = 0
Neighbor list builds = 0
Dangerous builds = 0
Executing command: 'write_restart ../DEM/liggghts.restartCFDEM'
System init for write_restart ...
LIGGGHTS finished

 timeStepFraction() = 1

Solver level total Eulerian momentum exchange:
  TotalForceImp:  (0 0 0)
  Warning, these values are based on latest Ksl and Us but prev. iteration U!

DILUPBiCG:  Solving for Ux, Initial residual = 0.101156, Final residual = 0.001189, No Iterations 2
DILUPBiCG:  Solving for Uy, Initial residual = 0.11425, Final residual = 0.0110364, No Iterations 1
DILUPBiCG:  Solving for Uz, Initial residual = 0.0393956, Final residual = 0.00029506, No Iterations 2
DICPCG:  Solving for p, Initial residual = 0.108189, Final residual = 0.00761747, No Iterations 20
DICPCG:  Solving for p, Initial residual = 0.00691285, Final residual = 0.000660366, No Iterations 7
time step continuity errors : sum local = 0.00618017, global = -0.00201211, cumulative = -0.0220235
DICPCG:  Solving for p, Initial residual = 0.0584849, Final residual = 0.00516945, No Iterations 20
DICPCG:  Solving for p, Initial residual = 0.00817969, Final residual = 0.000660117, No Iterations 11
time step continuity errors : sum local = 0.00384551, global = 0.000701598, cumulative = -0.0213219
DICPCG:  Solving for p, Initial residual = 0.0169919, Final residual = 0.00159097, No Iterations 2
DICPCG:  Solving for p, Initial residual = 0.00159061, Final residual = 0.000153803, No Iterations 15
time step continuity errors : sum local = 0.000899373, global = 0.000202655, cumulative = -0.0211192
DICPCG:  Solving for p, Initial residual = 0.00661517, Final residual = 0.000528511, No Iterations 2
DICPCG:  Solving for p, Initial residual = 0.000529245, Final residual = 7.81485e-07, No Iterations 23
time step continuity errors : sum local = 4.82519e-06, global = 3.63301e-07, cumulative = -0.0211189
ExecutionTime = 2.98 s  ClockTime = 3 s

Time = 170

Courant Number mean: 30.1726 max: 124.099

 Coupling...
Starting up LIGGGHTS
Executing command: 'run 1000    '
Setting up run at Tue Mar  7 14:05:15 2023

Memory usage per processor = 7.06116 Mbytes
    Step    Atoms 
  366000        0 
  367000        0 
Loop time of 0.00461414 on 4 procs for 1000 steps with 0 atoms, finish time Tue Mar  7 14:05:15 2023


Pair  time (%) = 0.000211066 (4.57432)
Neigh time (%) = 0 (0)
Comm  time (%) = 0.00012322 (2.6705)
Outpt time (%) = 2.43425e-06 (0.0527563)
Other time (%) = 0.00427742 (92.7024)

Nlocal:    0 ave 0 max 0 min
Histogram: 4 0 0 0 0 0 0 0 0 0
Nghost:    0 ave 0 max 0 min
Histogram: 4 0 0 0 0 0 0 0 0 0
Neighs:    0 ave 0 max 0 min
Histogram: 4 0 0 0 0 0 0 0 0 0

Total # of neighbors = 0
Neighbor list builds = 0
Dangerous builds = 0
Executing command: 'write_restart ../DEM/liggghts.restartCFDEM'
System init for write_restart ...
LIGGGHTS finished

 timeStepFraction() = 1

Solver level total Eulerian momentum exchange:
  TotalForceImp:  (0 0 0)
  Warning, these values are based on latest Ksl and Us but prev. iteration U!

DILUPBiCG:  Solving for Ux, Initial residual = 0.113612, Final residual = 0.00124372, No Iterations 2
DILUPBiCG:  Solving for Uy, Initial residual = 0.116272, Final residual = 0.0113982, No Iterations 1
DILUPBiCG:  Solving for Uz, Initial residual = 0.0392941, Final residual = 0.000218301, No Iterations 2
DICPCG:  Solving for p, Initial residual = 0.132058, Final residual = 0.011653, No Iterations 20
DICPCG:  Solving for p, Initial residual = 0.00680004, Final residual = 0.00064202, No Iterations 7
time step continuity errors : sum local = 0.00720599, global = -0.00210287, cumulative = -0.0232217
DICPCG:  Solving for p, Initial residual = 0.0482523, Final residual = 0.00469485, No Iterations 19
DICPCG:  Solving for p, Initial residual = 0.0103694, Final residual = 0.00103176, No Iterations 6
time step continuity errors : sum local = 0.00518055, global = 0.00105259, cumulative = -0.0221692
DICPCG:  Solving for p, Initial residual = 0.0193782, Final residual = 0.00150826, No Iterations 2
DICPCG:  Solving for p, Initial residual = 0.00150409, Final residual = 0.000123443, No Iterations 21
time step continuity errors : sum local = 0.00061879, global = 1.85511e-05, cumulative = -0.0221506
DICPCG:  Solving for p, Initial residual = 0.00656401, Final residual = 0.000391321, No Iterations 12
DICPCG:  Solving for p, Initial residual = 0.000402444, Final residual = 5.56473e-07, No Iterations 25
time step continuity errors : sum local = 2.95723e-06, global = 8.48856e-08, cumulative = -0.0221505
ExecutionTime = 2.99 s  ClockTime = 3 s

Time = 180

Courant Number mean: 28.8839 max: 120.207

 Coupling...
Starting up LIGGGHTS
Executing command: 'run 1000    '
Setting up run at Tue Mar  7 14:05:15 2023

Memory usage per processor = 7.06116 Mbytes
    Step    Atoms 
  367000        0 
  368000        0 
Loop time of 0.00458567 on 4 procs for 1000 steps with 0 atoms, finish time Tue Mar  7 14:05:15 2023


Pair  time (%) = 0.000208161 (4.53938)
Neigh time (%) = 0 (0)
Comm  time (%) = 0.000123016 (2.68262)
Outpt time (%) = 2.21175e-06 (0.0482318)
Other time (%) = 0.00425228 (92.7298)

Nlocal:    0 ave 0 max 0 min
Histogram: 4 0 0 0 0 0 0 0 0 0
Nghost:    0 ave 0 max 0 min
Histogram: 4 0 0 0 0 0 0 0 0 0
Neighs:    0 ave 0 max 0 min
Histogram: 4 0 0 0 0 0 0 0 0 0

Total # of neighbors = 0
Neighbor list builds = 0
Dangerous builds = 0
Executing command: 'write_restart ../DEM/liggghts.restartCFDEM'
System init for write_restart ...
LIGGGHTS finished

 timeStepFraction() = 1

Solver level total Eulerian momentum exchange:
  TotalForceImp:  (0 0 0)
  Warning, these values are based on latest Ksl and Us but prev. iteration U!

DILUPBiCG:  Solving for Ux, Initial residual = 0.123689, Final residual = 0.00129886, No Iterations 2
DILUPBiCG:  Solving for Uy, Initial residual = 0.114183, Final residual = 0.0101379, No Iterations 1
DILUPBiCG:  Solving for Uz, Initial residual = 0.0369968, Final residual = 0.000521145, No Iterations 2
DICPCG:  Solving for p, Initial residual = 0.15579, Final residual = 0.0151056, No Iterations 16
DICPCG:  Solving for p, Initial residual = 0.00902768, Final residual = 0.000468009, No Iterations 21
time step continuity errors : sum local = 0.00360191, global = -0.00011802, cumulative = -0.0222685
DICPCG:  Solving for p, Initial residual = 0.0531784, Final residual = 0.00432117, No Iterations 21
DICPCG:  Solving for p, Initial residual = 0.00943846, Final residual = 0.000559074, No Iterations 10
time step continuity errors : sum local = 0.00216316, global = 0.000501505, cumulative = -0.021767
DICPCG:  Solving for p, Initial residual = 0.0204953, Final residual = 0.00149076, No Iterations 2
DICPCG:  Solving for p, Initial residual = 0.00148846, Final residual = 0.000126567, No Iterations 13
time step continuity errors : sum local = 0.000490695, global = -7.21575e-05, cumulative = -0.0218392
DICPCG:  Solving for p, Initial residual = 0.00781472, Final residual = 0.000715712, No Iterations 2
DICPCG:  Solving for p, Initial residual = 0.000715749, Final residual = 8.08007e-07, No Iterations 25
time step continuity errors : sum local = 3.12281e-06, global = 9.62077e-08, cumulative = -0.0218391
ExecutionTime = 3 s  ClockTime = 3 s

Time = 190

Courant Number mean: 27.9219 max: 119.261

 Coupling...
Starting up LIGGGHTS
Executing command: 'run 1000    '
Setting up run at Tue Mar  7 14:05:15 2023

Memory usage per processor = 7.06116 Mbytes
    Step    Atoms 
  368000        0 
  369000        0 
Loop time of 0.00461167 on 4 procs for 1000 steps with 0 atoms, finish time Tue Mar  7 14:05:15 2023


Pair  time (%) = 0.000196667 (4.26455)
Neigh time (%) = 0 (0)
Comm  time (%) = 0.000125655 (2.72472)
Outpt time (%) = 2.3825e-06 (0.0516624)
Other time (%) = 0.00428696 (92.9591)

Nlocal:    0 ave 0 max 0 min
Histogram: 4 0 0 0 0 0 0 0 0 0
Nghost:    0 ave 0 max 0 min
Histogram: 4 0 0 0 0 0 0 0 0 0
Neighs:    0 ave 0 max 0 min
Histogram: 4 0 0 0 0 0 0 0 0 0

Total # of neighbors = 0
Neighbor list builds = 0
Dangerous builds = 0
Executing command: 'write_restart ../DEM/liggghts.restartCFDEM'
System init for write_restart ...
LIGGGHTS finished

 timeStepFraction() = 1

Solver level total Eulerian momentum exchange:
  TotalForceImp:  (0 0 0)
  Warning, these values are based on latest Ksl and Us but prev. iteration U!

DILUPBiCG:  Solving for Ux, Initial residual = 0.13234, Final residual = 0.00245806, No Iterations 2
DILUPBiCG:  Solving for Uy, Initial residual = 0.11538, Final residual = 0.00925705, No Iterations 1
DILUPBiCG:  Solving for Uz, Initial residual = 0.0358907, Final residual = 0.00319076, No Iterations 1
DICPCG:  Solving for p, Initial residual = 0.188991, Final residual = 0.0141203, No Iterations 16
DICPCG:  Solving for p, Initial residual = 0.00936904, Final residual = 0.000921295, No Iterations 9
time step continuity errors : sum local = 0.00458364, global = -9.24253e-05, cumulative = -0.0219315
DICPCG:  Solving for p, Initial residual = 0.0703912, Final residual = 0.00407128, No Iterations 17
DICPCG:  Solving for p, Initial residual = 0.00914336, Final residual = 0.000753723, No Iterations 9
time step continuity errors : sum local = 0.00166326, global = 0.000383769, cumulative = -0.0215478
DICPCG:  Solving for p, Initial residual = 0.0287749, Final residual = 0.00169705, No Iterations 2
DICPCG:  Solving for p, Initial residual = 0.0016888, Final residual = 0.000123205, No Iterations 21
time step continuity errors : sum local = 0.000278239, global = 1.50728e-05, cumulative = -0.0215327
DICPCG:  Solving for p, Initial residual = 0.00930583, Final residual = 0.000778031, No Iterations 2
DICPCG:  Solving for p, Initial residual = 0.000777429, Final residual = 8.5284e-07, No Iterations 25
time step continuity errors : sum local = 2.06161e-06, global = 9.30538e-08, cumulative = -0.0215326
ExecutionTime = 3.01 s  ClockTime = 3 s

Time = 200

Courant Number mean: 27.0639 max: 118.268

 Coupling...
Starting up LIGGGHTS
Executing command: 'run 1000    '
Setting up run at Tue Mar  7 14:05:15 2023

Memory usage per processor = 7.06116 Mbytes
    Step    Atoms 
  369000        0 
  370000        0 
Loop time of 0.00545015 on 4 procs for 1000 steps with 0 atoms, finish time Tue Mar  7 14:05:15 2023


Pair  time (%) = 0.000206962 (3.79736)
Neigh time (%) = 0 (0)
Comm  time (%) = 0.000125611 (2.30472)
Outpt time (%) = 0.000827276 (15.179)
Other time (%) = 0.0042903 (78.719)

Nlocal:    0 ave 0 max 0 min
Histogram: 4 0 0 0 0 0 0 0 0 0
Nghost:    0 ave 0 max 0 min
Histogram: 4 0 0 0 0 0 0 0 0 0
Neighs:    0 ave 0 max 0 min
Histogram: 4 0 0 0 0 0 0 0 0 0

Total # of neighbors = 0
Neighbor list builds = 0
Dangerous builds = 0
Executing command: 'write_restart ../DEM/liggghts.restartCFDEM'
System init for write_restart ...
LIGGGHTS finished

 timeStepFraction() = 1

Solver level total Eulerian momentum exchange:
  TotalForceImp:  (0 0 0)
  Warning, these values are based on latest Ksl and Us but prev. iteration U!

DILUPBiCG:  Solving for Ux, Initial residual = 0.130437, Final residual = 0.00899125, No Iterations 1
DILUPBiCG:  Solving for Uy, Initial residual = 0.115514, Final residual = 0.00805461, No Iterations 1
DILUPBiCG:  Solving for Uz, Initial residual = 0.0351179, Final residual = 0.000665449, No Iterations 2
DICPCG:  Solving for p, Initial residual = 0.291631, Final residual = 0.0165181, No Iterations 21
DICPCG:  Solving for p, Initial residual = 0.00499825, Final residual = 0.00035292, No Iterations 3
time step continuity errors : sum local = 0.00267055, global = 0.00010944, cumulative = -0.0214231
DICPCG:  Solving for p, Initial residual = 0.0524349, Final residual = 0.00280344, No Iterations 21
DICPCG:  Solving for p, Initial residual = 0.0136859, Final residual = 0.000747753, No Iterations 4
time step continuity errors : sum local = 0.00114333, global = 3.17581e-05, cumulative = -0.0213914
DICPCG:  Solving for p, Initial residual = 0.0473171, Final residual = 0.00319726, No Iterations 2
DICPCG:  Solving for p, Initial residual = 0.00315032, Final residual = 0.000288713, No Iterations 21
time step continuity errors : sum local = 0.000454018, global = -9.54481e-06, cumulative = -0.0214009
DICPCG:  Solving for p, Initial residual = 0.0188855, Final residual = 0.00137486, No Iterations 2
DICPCG:  Solving for p, Initial residual = 0.00136855, Final residual = 3.92337e-07, No Iterations 26
time step continuity errors : sum local = 5.56008e-07, global = 2.05183e-08, cumulative = -0.0214009
ExecutionTime = 3.02 s  ClockTime = 3 s

Time = 210

Courant Number mean: 30.4165 max: 117.287

 Coupling...
Starting up LIGGGHTS
Executing command: 'run 1000    '
Setting up run at Tue Mar  7 14:05:15 2023

Memory usage per processor = 7.06116 Mbytes
    Step    Atoms 
  370000        0 
  371000        0 
Loop time of 0.00458484 on 4 procs for 1000 steps with 0 atoms, finish time Tue Mar  7 14:05:15 2023


Pair  time (%) = 0.000207193 (4.51909)
Neigh time (%) = 0 (0)
Comm  time (%) = 0.000122779 (2.67793)
Outpt time (%) = 2.1575e-06 (0.0470572)
Other time (%) = 0.00425271 (92.7559)

Nlocal:    0 ave 0 max 0 min
Histogram: 4 0 0 0 0 0 0 0 0 0
Nghost:    0 ave 0 max 0 min
Histogram: 4 0 0 0 0 0 0 0 0 0
Neighs:    0 ave 0 max 0 min
Histogram: 4 0 0 0 0 0 0 0 0 0

Total # of neighbors = 0
Neighbor list builds = 0
Dangerous builds = 0
Executing command: 'write_restart ../DEM/liggghts.restartCFDEM'
System init for write_restart ...
LIGGGHTS finished

 timeStepFraction() = 1

Solver level total Eulerian momentum exchange:
  TotalForceImp:  (0 0 0)
  Warning, these values are based on latest Ksl and Us but prev. iteration U!

DILUPBiCG:  Solving for Ux, Initial residual = 0.13045, Final residual = 0.0106966, No Iterations 1
DILUPBiCG:  Solving for Uy, Initial residual = 0.106586, Final residual = 0.0102315, No Iterations 1
DILUPBiCG:  Solving for Uz, Initial residual = 0.0363463, Final residual = 0.000522864, No Iterations 2
DICPCG:  Solving for p, Initial residual = 0.371102, Final residual = 0.0324913, No Iterations 21
DICPCG:  Solving for p, Initial residual = 0.00662816, Final residual = 0.000530614, No Iterations 4
time step continuity errors : sum local = 0.00374305, global = 0.000847546, cumulative = -0.0205534
DICPCG:  Solving for p, Initial residual = 0.0470076, Final residual = 0.00319903, No Iterations 17
DICPCG:  Solving for p, Initial residual = 0.0121655, Final residual = 0.000989634, No Iterations 10
time step continuity errors : sum local = 0.00179972, global = -0.000311477, cumulative = -0.0208648
DICPCG:  Solving for p, Initial residual = 0.0377731, Final residual = 0.00276029, No Iterations 2
DICPCG:  Solving for p, Initial residual = 0.00275565, Final residual = 0.000248679, No Iterations 21
time step continuity errors : sum local = 0.00044141, global = -2.38879e-05, cumulative = -0.0208887
DICPCG:  Solving for p, Initial residual = 0.0143685, Final residual = 0.00127098, No Iterations 2
DICPCG:  Solving for p, Initial residual = 0.00127163, Final residual = 2.41799e-07, No Iterations 26
time step continuity errors : sum local = 3.92692e-07, global = -1.08885e-08, cumulative = -0.0208887
ExecutionTime = 3.02 s  ClockTime = 3 s

Time = 220

Courant Number mean: 31.958 max: 116.553

 Coupling...
Starting up LIGGGHTS
Executing command: 'run 1000    '
Setting up run at Tue Mar  7 14:05:15 2023

Memory usage per processor = 7.06116 Mbytes
    Step    Atoms 
  371000        0 
  372000        0 
Loop time of 0.00459128 on 4 procs for 1000 steps with 0 atoms, finish time Tue Mar  7 14:05:15 2023


Pair  time (%) = 0.000195475 (4.25752)
Neigh time (%) = 0 (0)
Comm  time (%) = 0.000122454 (2.66711)
Outpt time (%) = 2.244e-06 (0.0488753)
Other time (%) = 0.00427111 (93.0265)

Nlocal:    0 ave 0 max 0 min
Histogram: 4 0 0 0 0 0 0 0 0 0
Nghost:    0 ave 0 max 0 min
Histogram: 4 0 0 0 0 0 0 0 0 0
Neighs:    0 ave 0 max 0 min
Histogram: 4 0 0 0 0 0 0 0 0 0

Total # of neighbors = 0
Neighbor list builds = 0
Dangerous builds = 0
Executing command: 'write_restart ../DEM/liggghts.restartCFDEM'
System init for write_restart ...
LIGGGHTS finished

 timeStepFraction() = 1

Solver level total Eulerian momentum exchange:
  TotalForceImp:  (0 0 0)
  Warning, these values are based on latest Ksl and Us but prev. iteration U!

DILUPBiCG:  Solving for Ux, Initial residual = 0.112528, Final residual = 0.0101068, No Iterations 1
DILUPBiCG:  Solving for Uy, Initial residual = 0.101911, Final residual = 0.00141814, No Iterations 2
DILUPBiCG:  Solving for Uz, Initial residual = 0.023281, Final residual = 0.00193458, No Iterations 1
DICPCG:  Solving for p, Initial residual = 0.206999, Final residual = 0.0194186, No Iterations 21
DICPCG:  Solving for p, Initial residual = 0.00287105, Final residual = 0.000277962, No Iterations 4
time step continuity errors : sum local = 0.00293913, global = -0.000252886, cumulative = -0.0211416
DICPCG:  Solving for p, Initial residual = 0.0200911, Final residual = 0.00161886, No Iterations 21
DICPCG:  Solving for p, Initial residual = 0.0117442, Final residual = 0.000982748, No Iterations 4
time step continuity errors : sum local = 0.00142797, global = 6.33115e-05, cumulative = -0.0210783
DICPCG:  Solving for p, Initial residual = 0.0302469, Final residual = 0.00226938, No Iterations 6
DICPCG:  Solving for p, Initial residual = 0.00226522, Final residual = 0.000177998, No Iterations 12
time step continuity errors : sum local = 0.000259063, global = -2.91268e-05, cumulative = -0.0211074
DICPCG:  Solving for p, Initial residual = 0.0133338, Final residual = 0.0012085, No Iterations 9
DICPCG:  Solving for p, Initial residual = 0.00121478, Final residual = 4.35493e-07, No Iterations 26
time step continuity errors : sum local = 6.3456e-07, global = 1.41119e-08, cumulative = -0.0211074
ExecutionTime = 3.03 s  ClockTime = 3 s

Time = 230

Courant Number mean: 35.9202 max: 115.907

 Coupling...
Starting up LIGGGHTS
Executing command: 'run 1000    '
Setting up run at Tue Mar  7 14:05:15 2023

Memory usage per processor = 7.06116 Mbytes
    Step    Atoms 
  372000        0 
  373000        0 
Loop time of 0.0051123 on 4 procs for 1000 steps with 0 atoms, finish time Tue Mar  7 14:05:15 2023


Pair  time (%) = 0.000216842 (4.24158)
Neigh time (%) = 0 (0)
Comm  time (%) = 0.00012846 (2.51275)
Outpt time (%) = 2.8815e-06 (0.0563641)
Other time (%) = 0.00476412 (93.1893)

Nlocal:    0 ave 0 max 0 min
Histogram: 4 0 0 0 0 0 0 0 0 0
Nghost:    0 ave 0 max 0 min
Histogram: 4 0 0 0 0 0 0 0 0 0
Neighs:    0 ave 0 max 0 min
Histogram: 4 0 0 0 0 0 0 0 0 0

Total # of neighbors = 0
Neighbor list builds = 0
Dangerous builds = 0
Executing command: 'write_restart ../DEM/liggghts.restartCFDEM'
System init for write_restart ...
LIGGGHTS finished

 timeStepFraction() = 1

Solver level total Eulerian momentum exchange:
  TotalForceImp:  (0 0 0)
  Warning, these values are based on latest Ksl and Us but prev. iteration U!

DILUPBiCG:  Solving for Ux, Initial residual = 0.104438, Final residual = 0.00594398, No Iterations 1
DILUPBiCG:  Solving for Uy, Initial residual = 0.105083, Final residual = 0.00576759, No Iterations 1
DILUPBiCG:  Solving for Uz, Initial residual = 0.0301651, Final residual = 0.000485452, No Iterations 2
DICPCG:  Solving for p, Initial residual = 0.302496, Final residual = 0.0281386, No Iterations 10
DICPCG:  Solving for p, Initial residual = 0.0274945, Final residual = 0.0025047, No Iterations 11
time step continuity errors : sum local = 0.00302859, global = 0.000102272, cumulative = -0.0210052
DICPCG:  Solving for p, Initial residual = 0.171264, Final residual = 0.0156755, No Iterations 11
DICPCG:  Solving for p, Initial residual = 0.0181926, Final residual = 0.00100814, No Iterations 20
time step continuity errors : sum local = 0.00100168, global = 4.07643e-06, cumulative = -0.0210011
DICPCG:  Solving for p, Initial residual = 0.0651859, Final residual = 0.00425115, No Iterations 2
DICPCG:  Solving for p, Initial residual = 0.0042031, Final residual = 0.000318968, No Iterations 21
time step continuity errors : sum local = 0.000210907, global = 1.60091e-05, cumulative = -0.0209851
DICPCG:  Solving for p, Initial residual = 0.0341555, Final residual = 0.00171626, No Iterations 22
DICPCG:  Solving for p, Initial residual = 0.00127044, Final residual = 6.2716e-07, No Iterations 26
time step continuity errors : sum local = 4.46523e-07, global = -1.26682e-08, cumulative = -0.0209851
ExecutionTime = 3.04 s  ClockTime = 3 s

Time = 240

Courant Number mean: 36.6483 max: 115.248

 Coupling...
Starting up LIGGGHTS
Executing command: 'run 1000    '
Setting up run at Tue Mar  7 14:05:15 2023

Memory usage per processor = 7.06116 Mbytes
    Step    Atoms 
  373000        0 
  374000        0 
Loop time of 0.00459209 on 4 procs for 1000 steps with 0 atoms, finish time Tue Mar  7 14:05:15 2023


Pair  time (%) = 0.000204118 (4.44498)
Neigh time (%) = 0 (0)
Comm  time (%) = 0.000126091 (2.74582)
Outpt time (%) = 2.21375e-06 (0.0482079)
Other time (%) = 0.00425967 (92.761)

Nlocal:    0 ave 0 max 0 min
Histogram: 4 0 0 0 0 0 0 0 0 0
Nghost:    0 ave 0 max 0 min
Histogram: 4 0 0 0 0 0 0 0 0 0
Neighs:    0 ave 0 max 0 min
Histogram: 4 0 0 0 0 0 0 0 0 0

Total # of neighbors = 0
Neighbor list builds = 0
Dangerous builds = 0
Executing command: 'write_restart ../DEM/liggghts.restartCFDEM'
System init for write_restart ...
LIGGGHTS finished

 timeStepFraction() = 1

Solver level total Eulerian momentum exchange:
  TotalForceImp:  (0 0 0)
  Warning, these values are based on latest Ksl and Us but prev. iteration U!

DILUPBiCG:  Solving for Ux, Initial residual = 0.0891321, Final residual = 0.00453859, No Iterations 1
DILUPBiCG:  Solving for Uy, Initial residual = 0.0912306, Final residual = 0.00480182, No Iterations 1
DILUPBiCG:  Solving for Uz, Initial residual = 0.0196436, Final residual = 9.50983e-05, No Iterations 3
DICPCG:  Solving for p, Initial residual = 0.361433, Final residual = 0.0185565, No Iterations 22
DICPCG:  Solving for p, Initial residual = 0.00447514, Final residual = 0.000390746, No Iterations 3
time step continuity errors : sum local = 0.00115634, global = -3.61287e-05, cumulative = -0.0210212
DICPCG:  Solving for p, Initial residual = 0.0549495, Final residual = 0.00320488, No Iterations 22
DICPCG:  Solving for p, Initial residual = 0.0143123, Final residual = 0.000718983, No Iterations 4
time step continuity errors : sum local = 0.000466, global = 2.76078e-05, cumulative = -0.0209936
DICPCG:  Solving for p, Initial residual = 0.0433921, Final residual = 0.00360448, No Iterations 19
DICPCG:  Solving for p, Initial residual = 0.00455446, Final residual = 0.000413256, No Iterations 4
time step continuity errors : sum local = 0.000214812, global = 2.84744e-05, cumulative = -0.0209651
DICPCG:  Solving for p, Initial residual = 0.0218273, Final residual = 0.0021441, No Iterations 20
DICPCG:  Solving for p, Initial residual = 0.00173386, Final residual = 5.94634e-07, No Iterations 26
time step continuity errors : sum local = 3.81686e-07, global = -6.95599e-09, cumulative = -0.0209651
ExecutionTime = 3.05 s  ClockTime = 3 s

Time = 250

Courant Number mean: 37.4628 max: 114.647

 Coupling...
Starting up LIGGGHTS
Executing command: 'run 1000    '
Setting up run at Tue Mar  7 14:05:15 2023

Memory usage per processor = 7.06116 Mbytes
    Step    Atoms 
  374000        0 
  375000        0 
Loop time of 0.00458876 on 4 procs for 1000 steps with 0 atoms, finish time Tue Mar  7 14:05:15 2023


Pair  time (%) = 0.000210475 (4.58674)
Neigh time (%) = 0 (0)
Comm  time (%) = 0.000125642 (2.73804)
Outpt time (%) = 2.2035e-06 (0.0480195)
Other time (%) = 0.00425044 (92.6272)

Nlocal:    0 ave 0 max 0 min
Histogram: 4 0 0 0 0 0 0 0 0 0
Nghost:    0 ave 0 max 0 min
Histogram: 4 0 0 0 0 0 0 0 0 0
Neighs:    0 ave 0 max 0 min
Histogram: 4 0 0 0 0 0 0 0 0 0

Total # of neighbors = 0
Neighbor list builds = 0
Dangerous builds = 0
Executing command: 'write_restart ../DEM/liggghts.restartCFDEM'
System init for write_restart ...
LIGGGHTS finished

 timeStepFraction() = 1

Solver level total Eulerian momentum exchange:
  TotalForceImp:  (0 0 0)
  Warning, these values are based on latest Ksl and Us but prev. iteration U!

DILUPBiCG:  Solving for Ux, Initial residual = 0.0745049, Final residual = 0.00437685, No Iterations 1
DILUPBiCG:  Solving for Uy, Initial residual = 0.0798688, Final residual = 0.00520878, No Iterations 1
DILUPBiCG:  Solving for Uz, Initial residual = 0.0205735, Final residual = 0.000120188, No Iterations 2
DICPCG:  Solving for p, Initial residual = 0.284862, Final residual = 0.0151023, No Iterations 22
DICPCG:  Solving for p, Initial residual = 0.00494831, Final residual = 0.000452607, No Iterations 4
time step continuity errors : sum local = 0.000953185, global = -9.15129e-05, cumulative = -0.0210567
DICPCG:  Solving for p, Initial residual = 0.0570446, Final residual = 0.00367297, No Iterations 22
DICPCG:  Solving for p, Initial residual = 0.0084848, Final residual = 0.000799796, No Iterations 3
time step continuity errors : sum local = 0.000713872, global = -2.7623e-05, cumulative = -0.0210843
DICPCG:  Solving for p, Initial residual = 0.0206341, Final residual = 0.00195912, No Iterations 20
DICPCG:  Solving for p, Initial residual = 0.00255538, Final residual = 0.000173182, No Iterations 4
time step continuity errors : sum local = 0.00011907, global = 1.37052e-05, cumulative = -0.0210706
DICPCG:  Solving for p, Initial residual = 0.012627, Final residual = 0.00119908, No Iterations 20
DICPCG:  Solving for p, Initial residual = 0.00129836, Final residual = 7.58896e-07, No Iterations 26
time step continuity errors : sum local = 4.81667e-07, global = 2.90236e-09, cumulative = -0.0210706
ExecutionTime = 3.06 s  ClockTime = 3 s

Time = 260

Courant Number mean: 38.3086 max: 114.057

 Coupling...
Starting up LIGGGHTS
Executing command: 'run 1000    '
Setting up run at Tue Mar  7 14:05:15 2023

Memory usage per processor = 7.06116 Mbytes
    Step    Atoms 
  375000        0 
  376000        0 
Loop time of 0.00458529 on 4 procs for 1000 steps with 0 atoms, finish time Tue Mar  7 14:05:15 2023


Pair  time (%) = 0.000210612 (4.59321)
Neigh time (%) = 0 (0)
Comm  time (%) = 0.000126346 (2.75546)
Outpt time (%) = 2.21025e-06 (0.048203)
Other time (%) = 0.00424612 (92.6031)

Nlocal:    0 ave 0 max 0 min
Histogram: 4 0 0 0 0 0 0 0 0 0
Nghost:    0 ave 0 max 0 min
Histogram: 4 0 0 0 0 0 0 0 0 0
Neighs:    0 ave 0 max 0 min
Histogram: 4 0 0 0 0 0 0 0 0 0

Total # of neighbors = 0
Neighbor list builds = 0
Dangerous builds = 0
Executing command: 'write_restart ../DEM/liggghts.restartCFDEM'
System init for write_restart ...
LIGGGHTS finished

 timeStepFraction() = 1

Solver level total Eulerian momentum exchange:
  TotalForceImp:  (0 0 0)
  Warning, these values are based on latest Ksl and Us but prev. iteration U!

DILUPBiCG:  Solving for Ux, Initial residual = 0.0617591, Final residual = 0.0039352, No Iterations 1
DILUPBiCG:  Solving for Uy, Initial residual = 0.0734552, Final residual = 0.00321536, No Iterations 1
DILUPBiCG:  Solving for Uz, Initial residual = 0.0185909, Final residual = 2.74358e-05, No Iterations 3
DICPCG:  Solving for p, Initial residual = 0.306025, Final residual = 0.0176252, No Iterations 22
DICPCG:  Solving for p, Initial residual = 0.00358772, Final residual = 0.000310165, No Iterations 4
time step continuity errors : sum local = 0.00097804, global = -9.07852e-05, cumulative = -0.0211614
DICPCG:  Solving for p, Initial residual = 0.0445183, Final residual = 0.00440196, No Iterations 21
DICPCG:  Solving for p, Initial residual = 0.0107928, Final residual = 0.000754279, No Iterations 5
time step continuity errors : sum local = 0.000958607, global = 0.000177418, cumulative = -0.0209839
DICPCG:  Solving for p, Initial residual = 0.0237693, Final residual = 0.00237515, No Iterations 2
DICPCG:  Solving for p, Initial residual = 0.00236612, Final residual = 0.000231695, No Iterations 21
time step continuity errors : sum local = 0.000296498, global = 7.3856e-06, cumulative = -0.0209765
DICPCG:  Solving for p, Initial residual = 0.0101964, Final residual = 0.00090471, No Iterations 7
DICPCG:  Solving for p, Initial residual = 0.000903219, Final residual = 4.82682e-07, No Iterations 26
time step continuity errors : sum local = 5.85319e-07, global = 3.54543e-08, cumulative = -0.0209765
ExecutionTime = 3.07 s  ClockTime = 3 s

Time = 270

Courant Number mean: 39.7335 max: 113.552

 Coupling...
Starting up LIGGGHTS
Executing command: 'run 1000    '
Setting up run at Tue Mar  7 14:05:15 2023

Memory usage per processor = 7.06116 Mbytes
    Step    Atoms 
  376000        0 
  377000        0 
Loop time of 0.00459281 on 4 procs for 1000 steps with 0 atoms, finish time Tue Mar  7 14:05:15 2023


Pair  time (%) = 0.000205532 (4.47509)
Neigh time (%) = 0 (0)
Comm  time (%) = 0.000126846 (2.76183)
Outpt time (%) = 2.25425e-06 (0.0490821)
Other time (%) = 0.00425818 (92.714)

Nlocal:    0 ave 0 max 0 min
Histogram: 4 0 0 0 0 0 0 0 0 0
Nghost:    0 ave 0 max 0 min
Histogram: 4 0 0 0 0 0 0 0 0 0
Neighs:    0 ave 0 max 0 min
Histogram: 4 0 0 0 0 0 0 0 0 0

Total # of neighbors = 0
Neighbor list builds = 0
Dangerous builds = 0
[...]
DICPCG:  Solving for p, Initial residual = 0.027048, Final residual = 0.00148963, No Iterations 6
DICPCG:  Solving for p, Initial residual = 0.00149225, Final residual = 0.000134343, No Iterations 16
time step continuity errors : sum local = 2.11238e-05, global = -5.89086e-07, cumulative = -0.0212447
DICPCG:  Solving for p, Initial residual = 0.0134975, Final residual = 0.00132863, No Iterations 5
DICPCG:  Solving for p, Initial residual = 0.00132987, Final residual = 8.65568e-05, No Iterations 21
time step continuity errors : sum local = 1.49777e-05, global = 8.85184e-08, cumulative = -0.0212446
DICPCG:  Solving for p, Initial residual = 0.00418869, Final residual = 0.000311451, No Iterations 2
DICPCG:  Solving for p, Initial residual = 0.000311258, Final residual = 2.20492e-05, No Iterations 21
time step continuity errors : sum local = 3.60167e-06, global = -1.40966e-07, cumulative = -0.0212448
DICPCG:  Solving for p, Initial residual = 0.00185323, Final residual = 0.000174667, No Iterations 2
DICPCG:  Solving for p, Initial residual = 0.000174792, Final residual = 4.66753e-07, No Iterations 24
time step continuity errors : sum local = 7.56376e-08, global = -2.62259e-09, cumulative = -0.0212448
ExecutionTime = 3.66 s  ClockTime = 4 s

Time = 940

Courant Number mean: 55.5427 max: 90.2214

 Coupling...
Starting up LIGGGHTS
Executing command: 'run 1000    '
Setting up run at Tue Mar  7 14:05:16 2023

Memory usage per processor = 7.06116 Mbytes
    Step    Atoms 
  443000        0 
  444000        0 
Loop time of 0.00464243 on 4 procs for 1000 steps with 0 atoms, finish time Tue Mar  7 14:05:16 2023


Pair  time (%) = 0.000209054 (4.50311)
Neigh time (%) = 0 (0)
Comm  time (%) = 0.000122111 (2.63033)
Outpt time (%) = 2.2055e-06 (0.0475075)
Other time (%) = 0.00430906 (92.8191)

Nlocal:    0 ave 0 max 0 min
Histogram: 4 0 0 0 0 0 0 0 0 0
Nghost:    0 ave 0 max 0 min
Histogram: 4 0 0 0 0 0 0 0 0 0
Neighs:    0 ave 0 max 0 min
Histogram: 4 0 0 0 0 0 0 0 0 0

Total # of neighbors = 0
Neighbor list builds = 0
Dangerous builds = 0
Executing command: 'write_restart ../DEM/liggghts.restartCFDEM'
System init for write_restart ...
LIGGGHTS finished

 timeStepFraction() = 1

Solver level total Eulerian momentum exchange:
  TotalForceImp:  (0 0 0)
  Warning, these values are based on latest Ksl and Us but prev. iteration U!

DILUPBiCG:  Solving for Ux, Initial residual = 0.00985452, Final residual = 0.00024395, No Iterations 1
DILUPBiCG:  Solving for Uy, Initial residual = 0.00931492, Final residual = 0.000176868, No Iterations 1
DILUPBiCG:  Solving for Uz, Initial residual = 0.004511, Final residual = 0.000185912, No Iterations 1
DICPCG:  Solving for p, Initial residual = 0.0302625, Final residual = 0.00217632, No Iterations 5
DICPCG:  Solving for p, Initial residual = 0.00217582, Final residual = 0.000111466, No Iterations 20
time step continuity errors : sum local = 1.72747e-05, global = 3.50696e-07, cumulative = -0.0212444
DICPCG:  Solving for p, Initial residual = 0.0187294, Final residual = 0.00164121, No Iterations 4
DICPCG:  Solving for p, Initial residual = 0.00164619, Final residual = 0.000125953, No Iterations 16
time step continuity errors : sum local = 1.80536e-05, global = -1.99802e-06, cumulative = -0.0212464
DICPCG:  Solving for p, Initial residual = 0.00505377, Final residual = 0.000387277, No Iterations 2
DICPCG:  Solving for p, Initial residual = 0.000386968, Final residual = 2.28183e-05, No Iterations 11
time step continuity errors : sum local = 3.35422e-06, global = -9.56965e-07, cumulative = -0.0212474
DICPCG:  Solving for p, Initial residual = 0.0020627, Final residual = 0.000149651, No Iterations 2
DICPCG:  Solving for p, Initial residual = 0.000149757, Final residual = 6.59225e-07, No Iterations 24
time step continuity errors : sum local = 9.67221e-08, global = 2.78892e-09, cumulative = -0.0212474
ExecutionTime = 3.67 s  ClockTime = 4 s

Time = 950

Courant Number mean: 55.6114 max: 89.9611

 Coupling...
Starting up LIGGGHTS
Executing command: 'run 1000    '
Setting up run at Tue Mar  7 14:05:16 2023

Memory usage per processor = 7.06116 Mbytes
    Step    Atoms 
  444000        0 
  445000        0 
Loop time of 0.00489595 on 4 procs for 1000 steps with 0 atoms, finish time Tue Mar  7 14:05:16 2023


Pair  time (%) = 0.000211072 (4.31115)
Neigh time (%) = 0 (0)
Comm  time (%) = 0.000126584 (2.58548)
Outpt time (%) = 2.63725e-06 (0.0538659)
Other time (%) = 0.00455566 (93.0495)

Nlocal:    0 ave 0 max 0 min
Histogram: 4 0 0 0 0 0 0 0 0 0
Nghost:    0 ave 0 max 0 min
Histogram: 4 0 0 0 0 0 0 0 0 0
Neighs:    0 ave 0 max 0 min
Histogram: 4 0 0 0 0 0 0 0 0 0

Total # of neighbors = 0
Neighbor list builds = 0
Dangerous builds = 0
Executing command: 'write_restart ../DEM/liggghts.restartCFDEM'
System init for write_restart ...
LIGGGHTS finished

 timeStepFraction() = 1

Solver level total Eulerian momentum exchange:
  TotalForceImp:  (0 0 0)
  Warning, these values are based on latest Ksl and Us but prev. iteration U!

DILUPBiCG:  Solving for Ux, Initial residual = 0.00995699, Final residual = 0.000227116, No Iterations 1
DILUPBiCG:  Solving for Uy, Initial residual = 0.00936597, Final residual = 0.000157365, No Iterations 1
DILUPBiCG:  Solving for Uz, Initial residual = 0.00452951, Final residual = 0.000175137, No Iterations 1
DICPCG:  Solving for p, Initial residual = 0.0299159, Final residual = 0.00246938, No Iterations 3
DICPCG:  Solving for p, Initial residual = 0.0024724, Final residual = 0.000230407, No Iterations 12
time step continuity errors : sum local = 3.60535e-05, global = -1.26466e-05, cumulative = -0.02126
DICPCG:  Solving for p, Initial residual = 0.0158975, Final residual = 0.0014058, No Iterations 4
DICPCG:  Solving for p, Initial residual = 0.0014069, Final residual = 0.000103126, No Iterations 19
time step continuity errors : sum local = 1.59289e-05, global = -2.83544e-07, cumulative = -0.0212603
DICPCG:  Solving for p, Initial residual = 0.00459754, Final residual = 0.000267834, No Iterations 2
DICPCG:  Solving for p, Initial residual = 0.000267706, Final residual = 2.30822e-05, No Iterations 21
time step continuity errors : sum local = 3.46622e-06, global = -4.32509e-08, cumulative = -0.0212604
DICPCG:  Solving for p, Initial residual = 0.00186079, Final residual = 0.000103071, No Iterations 2
DICPCG:  Solving for p, Initial residual = 0.000103167, Final residual = 4.42321e-07, No Iterations 23
time step continuity errors : sum local = 6.6539e-08, global = 3.29264e-09, cumulative = -0.0212604
ExecutionTime = 3.67 s  ClockTime = 4 s

Time = 960

Courant Number mean: 55.6788 max: 89.7031

 Coupling...
Starting up LIGGGHTS
Executing command: 'run 1000    '
Setting up run at Tue Mar  7 14:05:16 2023

Memory usage per processor = 7.06116 Mbytes
    Step    Atoms 
  445000        0 
  446000        0 
Loop time of 0.00465145 on 4 procs for 1000 steps with 0 atoms, finish time Tue Mar  7 14:05:16 2023


Pair  time (%) = 0.000206506 (4.43961)
Neigh time (%) = 0 (0)
Comm  time (%) = 0.000123899 (2.66367)
Outpt time (%) = 2.3665e-06 (0.0508766)
Other time (%) = 0.00431868 (92.8458)

Nlocal:    0 ave 0 max 0 min
Histogram: 4 0 0 0 0 0 0 0 0 0
Nghost:    0 ave 0 max 0 min
Histogram: 4 0 0 0 0 0 0 0 0 0
Neighs:    0 ave 0 max 0 min
Histogram: 4 0 0 0 0 0 0 0 0 0

Total # of neighbors = 0
Neighbor list builds = 0
Dangerous builds = 0
Executing command: 'write_restart ../DEM/liggghts.restartCFDEM'
System init for write_restart ...
LIGGGHTS finished

 timeStepFraction() = 1

Solver level total Eulerian momentum exchange:
  TotalForceImp:  (0 0 0)
  Warning, these values are based on latest Ksl and Us but prev. iteration U!

DILUPBiCG:  Solving for Ux, Initial residual = 0.00971176, Final residual = 0.000230602, No Iterations 1
DILUPBiCG:  Solving for Uy, Initial residual = 0.00940767, Final residual = 0.000170824, No Iterations 1
DILUPBiCG:  Solving for Uz, Initial residual = 0.00458553, Final residual = 0.000203836, No Iterations 1
DICPCG:  Solving for p, Initial residual = 0.0328778, Final residual = 0.00277194, No Iterations 3
DICPCG:  Solving for p, Initial residual = 0.00276003, Final residual = 0.000165348, No Iterations 20
time step continuity errors : sum local = 2.33587e-05, global = -1.18102e-06, cumulative = -0.0212615
DICPCG:  Solving for p, Initial residual = 0.0161962, Final residual = 0.00141404, No Iterations 3
DICPCG:  Solving for p, Initial residual = 0.00141984, Final residual = 0.000100847, No Iterations 20
time step continuity errors : sum local = 1.57652e-05, global = -5.55022e-08, cumulative = -0.0212616
DICPCG:  Solving for p, Initial residual = 0.00512879, Final residual = 0.00039242, No Iterations 2
DICPCG:  Solving for p, Initial residual = 0.000392248, Final residual = 2.51114e-05, No Iterations 20
time step continuity errors : sum local = 3.69335e-06, global = -1.6946e-07, cumulative = -0.0212618
DICPCG:  Solving for p, Initial residual = 0.0021542, Final residual = 0.00018546, No Iterations 2
DICPCG:  Solving for p, Initial residual = 0.000185618, Final residual = 5.51755e-07, No Iterations 24
time step continuity errors : sum local = 8.04238e-08, global = 2.44866e-09, cumulative = -0.0212618
ExecutionTime = 3.68 s  ClockTime = 4 s

Time = 970

Courant Number mean: 55.7447 max: 89.4476

 Coupling...
Starting up LIGGGHTS
Executing command: 'run 1000    '
Setting up run at Tue Mar  7 14:05:16 2023

Memory usage per processor = 7.06116 Mbytes
    Step    Atoms 
  446000        0 
  447000        0 
Loop time of 0.00465648 on 4 procs for 1000 steps with 0 atoms, finish time Tue Mar  7 14:05:16 2023


Pair  time (%) = 0.000199661 (4.28782)
Neigh time (%) = 0 (0)
Comm  time (%) = 0.000125398 (2.69298)
Outpt time (%) = 2.316e-06 (0.0497372)
Other time (%) = 0.0043291 (92.9695)

Nlocal:    0 ave 0 max 0 min
Histogram: 4 0 0 0 0 0 0 0 0 0
Nghost:    0 ave 0 max 0 min
Histogram: 4 0 0 0 0 0 0 0 0 0
Neighs:    0 ave 0 max 0 min
Histogram: 4 0 0 0 0 0 0 0 0 0

Total # of neighbors = 0
Neighbor list builds = 0
Dangerous builds = 0
Executing command: 'write_restart ../DEM/liggghts.restartCFDEM'
System init for write_restart ...
LIGGGHTS finished

 timeStepFraction() = 1

Solver level total Eulerian momentum exchange:
  TotalForceImp:  (0 0 0)
  Warning, these values are based on latest Ksl and Us but prev. iteration U!

DILUPBiCG:  Solving for Ux, Initial residual = 0.0096799, Final residual = 0.000209778, No Iterations 1
DILUPBiCG:  Solving for Uy, Initial residual = 0.00930652, Final residual = 0.000146212, No Iterations 1
DILUPBiCG:  Solving for Uz, Initial residual = 0.00454586, Final residual = 0.000166714, No Iterations 1
DICPCG:  Solving for p, Initial residual = 0.0307366, Final residual = 0.00230318, No Iterations 5
DICPCG:  Solving for p, Initial residual = 0.00233555, Final residual = 0.000220275, No Iterations 10
time step continuity errors : sum local = 3.26607e-05, global = -2.13622e-06, cumulative = -0.0212639
DICPCG:  Solving for p, Initial residual = 0.0170231, Final residual = 0.00140718, No Iterations 5
DICPCG:  Solving for p, Initial residual = 0.00140284, Final residual = 6.50021e-05, No Iterations 21
time step continuity errors : sum local = 9.61403e-06, global = 2.78092e-07, cumulative = -0.0212636
DICPCG:  Solving for p, Initial residual = 0.00520032, Final residual = 0.000286694, No Iterations 2
DICPCG:  Solving for p, Initial residual = 0.000286313, Final residual = 1.56228e-05, No Iterations 20
time step continuity errors : sum local = 2.28187e-06, global = 1.58017e-07, cumulative = -0.0212635
DICPCG:  Solving for p, Initial residual = 0.00212374, Final residual = 0.000127389, No Iterations 2
DICPCG:  Solving for p, Initial residual = 0.000127482, Final residual = 4.74522e-07, No Iterations 24
time step continuity errors : sum local = 6.90573e-08, global = 3.49947e-09, cumulative = -0.0212635
ExecutionTime = 3.69 s  ClockTime = 4 s

Time = 980

Courant Number mean: 55.8093 max: 89.1944

 Coupling...
Starting up LIGGGHTS
Executing command: 'run 1000    '
Setting up run at Tue Mar  7 14:05:16 2023

Memory usage per processor = 7.06116 Mbytes
    Step    Atoms 
  447000        0 
  448000        0 
Loop time of 0.00464083 on 4 procs for 1000 steps with 0 atoms, finish time Tue Mar  7 14:05:16 2023


Pair  time (%) = 0.000211889 (4.56575)
Neigh time (%) = 0 (0)
Comm  time (%) = 0.00012572 (2.709)
Outpt time (%) = 2.32025e-06 (0.0499964)
Other time (%) = 0.0043009 (92.6753)

Nlocal:    0 ave 0 max 0 min
Histogram: 4 0 0 0 0 0 0 0 0 0
Nghost:    0 ave 0 max 0 min
Histogram: 4 0 0 0 0 0 0 0 0 0
Neighs:    0 ave 0 max 0 min
Histogram: 4 0 0 0 0 0 0 0 0 0

Total # of neighbors = 0
Neighbor list builds = 0
Dangerous builds = 0
Executing command: 'write_restart ../DEM/liggghts.restartCFDEM'
System init for write_restart ...
LIGGGHTS finished

 timeStepFraction() = 1

Solver level total Eulerian momentum exchange:
  TotalForceImp:  (0 0 0)
  Warning, these values are based on latest Ksl and Us but prev. iteration U!

DILUPBiCG:  Solving for Ux, Initial residual = 0.00937543, Final residual = 0.000191584, No Iterations 1
DILUPBiCG:  Solving for Uy, Initial residual = 0.00925909, Final residual = 0.000158913, No Iterations 1
DILUPBiCG:  Solving for Uz, Initial residual = 0.00456441, Final residual = 0.00018358, No Iterations 1
DICPCG:  Solving for p, Initial residual = 0.0349432, Final residual = 0.00344989, No Iterations 4
DICPCG:  Solving for p, Initial residual = 0.00344425, Final residual = 0.000322473, No Iterations 13
time step continuity errors : sum local = 4.53551e-05, global = -1.7241e-05, cumulative = -0.0212807
DICPCG:  Solving for p, Initial residual = 0.019213, Final residual = 0.00169001, No Iterations 4
DICPCG:  Solving for p, Initial residual = 0.00170053, Final residual = 0.000109032, No Iterations 20
time step continuity errors : sum local = 1.51838e-05, global = 1.86199e-07, cumulative = -0.0212805
DICPCG:  Solving for p, Initial residual = 0.00555986, Final residual = 0.000354483, No Iterations 2
DICPCG:  Solving for p, Initial residual = 0.000354249, Final residual = 2.00576e-05, No Iterations 21
time step continuity errors : sum local = 2.7127e-06, global = 1.10059e-07, cumulative = -0.0212804
DICPCG:  Solving for p, Initial residual = 0.00222145, Final residual = 0.000141125, No Iterations 2
DICPCG:  Solving for p, Initial residual = 0.000141213, Final residual = 4.15782e-07, No Iterations 24
time step continuity errors : sum local = 5.64595e-08, global = 7.9939e-10, cumulative = -0.0212804
ExecutionTime = 3.7 s  ClockTime = 4 s

Time = 990

Courant Number mean: 55.8725 max: 88.9435

 Coupling...
Starting up LIGGGHTS
Executing command: 'run 1000    '
Setting up run at Tue Mar  7 14:05:16 2023

Memory usage per processor = 7.06116 Mbytes
    Step    Atoms 
  448000        0 
  449000        0 
Loop time of 0.00463847 on 4 procs for 1000 steps with 0 atoms, finish time Tue Mar  7 14:05:16 2023


Pair  time (%) = 0.000202703 (4.37005)
Neigh time (%) = 0 (0)
Comm  time (%) = 0.000125965 (2.71565)
Outpt time (%) = 2.2125e-06 (0.0476989)
Other time (%) = 0.00430759 (92.8666)

Nlocal:    0 ave 0 max 0 min
Histogram: 4 0 0 0 0 0 0 0 0 0
Nghost:    0 ave 0 max 0 min
Histogram: 4 0 0 0 0 0 0 0 0 0
Neighs:    0 ave 0 max 0 min
Histogram: 4 0 0 0 0 0 0 0 0 0

Total # of neighbors = 0
Neighbor list builds = 0
Dangerous builds = 0
Executing command: 'write_restart ../DEM/liggghts.restartCFDEM'
System init for write_restart ...
LIGGGHTS finished

 timeStepFraction() = 1

Solver level total Eulerian momentum exchange:
  TotalForceImp:  (0 0 0)
  Warning, these values are based on latest Ksl and Us but prev. iteration U!

DILUPBiCG:  Solving for Ux, Initial residual = 0.00940249, Final residual = 0.00019016, No Iterations 1
DILUPBiCG:  Solving for Uy, Initial residual = 0.00927523, Final residual = 0.000165777, No Iterations 1
DILUPBiCG:  Solving for Uz, Initial residual = 0.0045907, Final residual = 0.000202613, No Iterations 1
DICPCG:  Solving for p, Initial residual = 0.0338889, Final residual = 0.00263203, No Iterations 2
DICPCG:  Solving for p, Initial residual = 0.00262971, Final residual = 0.000132906, No Iterations 21
time step continuity errors : sum local = 1.91444e-05, global = -4.20939e-07, cumulative = -0.0212808
DICPCG:  Solving for p, Initial residual = 0.0163715, Final residual = 0.00136868, No Iterations 2
DICPCG:  Solving for p, Initial residual = 0.00136897, Final residual = 0.000107358, No Iterations 21
time step continuity errors : sum local = 1.6022e-05, global = -6.85342e-07, cumulative = -0.0212815
DICPCG:  Solving for p, Initial residual = 0.00482281, Final residual = 0.000236226, No Iterations 2
DICPCG:  Solving for p, Initial residual = 0.000236195, Final residual = 1.0099e-05, No Iterations 21
time step continuity errors : sum local = 1.46745e-06, global = 4.24885e-08, cumulative = -0.0212815
DICPCG:  Solving for p, Initial residual = 0.00196593, Final residual = 9.3244e-05, No Iterations 2
DICPCG:  Solving for p, Initial residual = 9.332e-05, Final residual = 8.11283e-07, No Iterations 23
time step continuity errors : sum local = 1.17192e-07, global = -6.2648e-10, cumulative = -0.0212815
ExecutionTime = 3.71 s  ClockTime = 4 s

Time = 1000

Courant Number mean: 55.9345 max: 88.6948

 Coupling...
Starting up LIGGGHTS
Executing command: 'run 1000    '
Setting up run at Tue Mar  7 14:05:16 2023

Memory usage per processor = 7.06116 Mbytes
    Step    Atoms 
  449000        0 
  450000        0 
Loop time of 0.00548632 on 4 procs for 1000 steps with 0 atoms, finish time Tue Mar  7 14:05:16 2023


Pair  time (%) = 0.000204053 (3.71931)
Neigh time (%) = 0 (0)
Comm  time (%) = 0.000124427 (2.26794)
Outpt time (%) = 0.000831263 (15.1516)
Other time (%) = 0.00432657 (78.8612)

Nlocal:    0 ave 0 max 0 min
Histogram: 4 0 0 0 0 0 0 0 0 0
Nghost:    0 ave 0 max 0 min
Histogram: 4 0 0 0 0 0 0 0 0 0
Neighs:    0 ave 0 max 0 min
Histogram: 4 0 0 0 0 0 0 0 0 0

Total # of neighbors = 0
Neighbor list builds = 0
Dangerous builds = 0
Executing command: 'write_restart ../DEM/liggghts.restartCFDEM'
System init for write_restart ...
LIGGGHTS finished

 timeStepFraction() = 1

Solver level total Eulerian momentum exchange:
  TotalForceImp:  (0 0 0)
  Warning, these values are based on latest Ksl and Us but prev. iteration U!

DILUPBiCG:  Solving for Ux, Initial residual = 0.00920442, Final residual = 0.000191071, No Iterations 1
DILUPBiCG:  Solving for Uy, Initial residual = 0.009242, Final residual = 0.000180581, No Iterations 1
DILUPBiCG:  Solving for Uz, Initial residual = 0.00458813, Final residual = 0.000230615, No Iterations 1
DICPCG:  Solving for p, Initial residual = 0.0338104, Final residual = 0.00227869, No Iterations 3
DICPCG:  Solving for p, Initial residual = 0.00228873, Final residual = 0.000226148, No Iterations 11
time step continuity errors : sum local = 3.04678e-05, global = 4.58449e-06, cumulative = -0.0212769
DICPCG:  Solving for p, Initial residual = 0.0159032, Final residual = 0.00112907, No Iterations 3
DICPCG:  Solving for p, Initial residual = 0.00112811, Final residual = 8.33092e-05, No Iterations 7
time step continuity errors : sum local = 1.12981e-05, global = -6.94967e-07, cumulative = -0.0212776
DICPCG:  Solving for p, Initial residual = 0.00525732, Final residual = 0.00026628, No Iterations 2
DICPCG:  Solving for p, Initial residual = 0.000266379, Final residual = 2.36148e-05, No Iterations 20
time step continuity errors : sum local = 3.19798e-06, global = 2.08649e-07, cumulative = -0.0212774
DICPCG:  Solving for p, Initial residual = 0.00226081, Final residual = 9.67967e-05, No Iterations 2
DICPCG:  Solving for p, Initial residual = 9.6892e-05, Final residual = 4.00549e-07, No Iterations 24
time step continuity errors : sum local = 5.37407e-08, global = -6.7791e-10, cumulative = -0.0212774
ExecutionTime = 3.72 s  ClockTime = 4 s

End

Finalising parallel run
