
//   CFDEM_run   //

/home/pse/Filtration_Simulator/examples/uniform/CFDEM/CFD

/*---------------------------------------------------------------------------*\
| =========                 |                                                 |
| \\      /  F ield         | OpenFOAM: The Open Source CFD Toolbox           |
|  \\    /   O peration     | Version:  5.x                                   |
|   \\  /    A nd           | Web:      www.OpenFOAM.org                      |
|    \\/     M anipulation  |                                                 |
\*---------------------------------------------------------------------------*/
Build  : 5.x-7f7d351b741b
Exec   : cfdemSolverPiso -parallel
Date   : Mar 15 2023
Time   : 13:22:19
Host   : "CFDEM1"
PID    : 202335
I/O    : uncollated
Case   : /home/pse/Filtration_Simulator/examples/uniform/CFDEM/CFD
nProcs : 4
Slaves : 
3
(
"CFDEM1.202336"
"CFDEM1.202337"
"CFDEM1.202338"
)

Pstream initialized with:
    floatTransfer      : 0
    nProcsSimpleSum    : 0
    commsType          : nonBlocking
    polling iterations : 0
sigFpe : Enabling floating point exception trapping (FOAM_SIGFPE).
fileModificationChecking : Monitoring run-time modified files using timeStampMaster (fileModificationSkew 10)
allowSystemOperations : Allowing user-supplied system call operations

// * * * * * * * * * * * * * * * * * * * * * * * * * * * * * * * * * * * * * //
Create time

Create mesh for time = 0


PISO: Operating solver in PISO mode

Reading field p

Reading physical velocity field U
Note: only if voidfraction at boundary is 1, U is superficial velocity!!!


Reading momentum exchange field Ksl


Reading voidfraction field voidfraction = (Vgas/Vparticle)


Creating density field rho

Reading particle velocity field Us

Reading/calculating face flux field phi

Generating interstitial face flux field phiByVoidfraction

Selecting incompressible transport model Newtonian
Selecting turbulence model type laminar
Selecting laminar stress model Stokes
No finite volume options present


Reading g
Selecting locateModel engine
Selecting dataExchangeModel twoWayMPI
Starting up LIGGGHTS for first time execution
Executing input script '../DEM/liggghts_run.txt'
LIGGGHTS (Version LIGGGHTS-PUBLIC 3.8.0, compiled 2022-08-09-18:54:32 by pse, git commit 86544c3f1215bc9744d7929e3eacf53ba086af9e)
Reading restart file ...
version 3 8
version 3 8
WARNING: Restart file version does not match LIGGGHTS version (../read_restart.cpp:507)
   --> restart file = Version LIGGGHTS-PUBLIC 3.8.0, compiled 2022-08-09-18:52:33 by pse, git commit 86544c3f1215bc9744d7929e3eacf53ba086af9e
   --> LIGGGHTS = Version LIGGGHTS-PUBLIC 3.8.0, compiled 2022-08-09-18:54:32 by pse, git commit 86544c3f1215bc9744d7929e3eacf53ba086af9e
version 3 8
version 3 8
  orthogonal box = (-0.0005 -0.0005 -0.004) to (0.0005 0.0005 0.005)
  1 by 1 by 4 MPI processor grid
  167 atoms
INFO: mesh file (../DEM/stl_file/box.stl) is required, but data will be taken from restart file (../fix_mesh.cpp:417)
Resetting global state of Fix cad Style mesh/surface from restart file info
INFO: mesh file (../DEM/stl_file/inlet.stl) is required, but data will be taken from restart file (../fix_mesh.cpp:417)
Resetting global state of Fix inface Style mesh/surface from restart file info
Resetting global state of Fix n_neighs_mesh_cad Style property/atom from restart file info
Resetting per-atom state of Fix n_neighs_mesh_cad Style property/atom from restart file info
Resetting global state of Fix tracker_cad Style contacthistory/mesh from restart file info
Resetting per-atom state of Fix tracker_cad Style contacthistory/mesh from restart file info
167 atoms in group nve_group
couple_every as specified in LIGGGHTS is overriden by calling external program (../fix_cfd_coupling.cpp:114)
Resetting global state of Fix contacthistory Style contacthistory from restart file info
Resetting per-atom state of Fix contacthistory Style contacthistory from restart file info
Setting up run at Wed Mar 15 13:22:19 2023

WARNING: Not all nodes of fix mesh inside simulation box, elements will be deleted or wrapped around periodic boundary conditions (../fix_mesh.cpp:531)
Import and parallelization of mesh cad containing 2 triangle(s) successful
WARNING: Not all nodes of fix mesh inside simulation box, elements will be deleted or wrapped around periodic boundary conditions (../fix_mesh.cpp:531)
Import and parallelization of mesh inface containing 2 triangle(s) successful
Memory usage per processor = 6.7727 Mbytes
    Step    Atoms 
  350000      167 
Loop time of 1.83025e-06 on 4 procs for 0 steps with 167 atoms, finish time Wed Mar 15 13:22:19 2023


Pair  time (%) = 0 (0)
Neigh time (%) = 0 (0)
Comm  time (%) = 0 (0)
Outpt time (%) = 0 (0)
Other time (%) = 1.83025e-06 (100)

Nlocal:    41.75 ave 96 max 0 min
Histogram: 2 0 0 0 0 0 0 1 0 1
Nghost:    179.5 ave 364 max 0 min
Histogram: 2 0 0 0 0 0 0 0 0 2
Neighs:    1045.5 ave 2375 max 0 min
Histogram: 2 0 0 0 0 0 0 1 0 1

Total # of neighbors = 4182
Ave neighs/atom = 25.0419
Neighbor list builds = 0
Dangerous builds = 0
Selecting IOModel basicIO
Selecting probeModel off
Selecting voidFractionModel divided
Selecting averagingModel dense
Selecting clockModel off
start clock measurement at t >0.0002
Selecting smoothingModel off
Selecting meshMotionModel noMeshMotion

CFDEMcoupling version: cfdem-3.8.1
, compatible to LIGGGHTS version: 3.8.0
, compatible to OF version and build: 5.x-commit-538044ac05c4672b37c7df607dca1116fa88df88

You are currently using:
OF version: 5.x
OF build: 5.x-7f7d351b741b
CFDEM build: 3.8.0-3-gb237264-dirty

cg is set to: 1
LIGGGHTS hosts 1 atom types.
If BC are important, please provide volScalarFields -imp/expParticleForces-
ignoring ddt(voidfraction)
Selecting momCoupleModel implicitCouple

implicit momentum exchange field calculate if alphaP larger than : 1
Selecting forceModel GidaspowDrag
 Selecting forceSubModel ImEx
 reading switches:
  looking for treatForceExplicit ...  not found in dict, using default. treatForceExplicit = false
  looking for implForceDEM ...  not found in dict, using default. implForceDEM = false
  looking for verbose ...  found in dict. verbose = true
  looking for interpolation ...  found in dict. interpolation = true
  looking for scalarViscosity ...  not found in dict, using default. scalarViscosity = false

--> FOAM Warning : Please make sure you use the new nomenclature for verbose force model settings, please have a look at the forceSubModel doc.
Selecting forceModel gradPForce
 Selecting forceSubModel ImEx
 reading switches:
  looking for treatForceExplicit ...  not found in dict, using default. treatForceExplicit = true
  looking for verbose ...  not found in dict, using default. verbose = false
  looking for interpolation ...  found in dict. interpolation = true

Selecting forceModel viscForce
 Selecting forceSubModel ImEx
 reading switches:
  looking for treatForceExplicit ...  not found in dict, using default. treatForceExplicit = true
  looking for verbose ...  not found in dict, using default. verbose = false
  looking for interpolation ...  found in dict. interpolation = true
  looking for scalarViscosity ...  not found in dict, using default. scalarViscosity = false

Selecting forceModel fieldStore
Creating field stored_U
Selecting liggghtsCommandModel runLiggghts ,provide dicts, numbered from 0 to n
Selecting liggghtsCommandModel writeLiggghts ,provide dicts, numbered from 0 to n
writeLiggghts: A restart file writeName_write_restart ../DEM/liggghts.restartCFDEM is written.
solving volume averaged Navier Stokes equations of type A
check if Archimedes lift is necessary (depends on pressure formulation)


Starting time loop

--> FOAM Warning : 
    From function void Foam::timeControl::read(const Foam::dictionary&)
    in file db/functionObjects/timeControl/timeControl.C at line 89
    Reading "/home/pse/Filtration_Simulator/examples/uniform/CFDEM/CFD/system/controlDict.functions.probes" from line 54 to line 66
    Using deprecated 'outputControl'
    Please use 'writeControl' with 'writeInterval'
Time = 0.0001

Courant Number mean: 0.002 max: 0.002

 Coupling...
Starting up LIGGGHTS
Executing command: 'run 100    '
Setting up run at Wed Mar 15 13:22:19 2023

Memory usage per processor = 6.7727 Mbytes
    Step    Atoms 
  350000      167 
  350100      167 
Loop time of 0.00735492 on 4 procs for 100 steps with 167 atoms, finish time Wed Mar 15 13:22:19 2023


Pair  time (%) = 0.00204587 (27.8163)
Neigh time (%) = 0 (0)
Comm  time (%) = 0.000550765 (7.48839)
Outpt time (%) = 6.1968e-05 (0.842538)
Other time (%) = 0.00469632 (63.8528)

Nlocal:    41.75 ave 96 max 0 min
Histogram: 2 0 0 0 0 0 0 1 0 1
Nghost:    179.5 ave 364 max 0 min
Histogram: 2 0 0 0 0 0 0 0 0 2
Neighs:    1045.5 ave 2375 max 0 min
Histogram: 2 0 0 0 0 0 0 1 0 1

Total # of neighbors = 4182
Ave neighs/atom = 25.0419
Neighbor list builds = 0
Dangerous builds = 0
LIGGGHTS finished

 timeStepFraction() = 1
[0] cellI = 81
[0] index = 0
[0] Us = (5.32459e-09 -1.12524e-08 3.2801e-09)
[0] Ur = (-5.32459e-09 1.12524e-08 -0.001)
[0] dprim = 0.0002
[0] phi = 1
[0] rho = 1000
[0] nuf = 1e-06
[0] voidfraction = 0.429577
[0] Rep = 0
[0] betaP = 4.98827e+06
[0] drag = (-1.11256e-13 2.35116e-13 -2.08949e-08)
[3] cellI = 81
[3] index = 1
[3] Us = (4.62661e-09 -5.01125e-09 1.70834e-09)
[3] Ur = (-4.62661e-09 5.01125e-09 -0.001)
[3] dprim = 0.0002
[3] phi = 1
[3] rho = 1000
[3] nuf = 1e-06
[3] voidfraction = 0.422149
[3] Rep = 0
[3] betaP = 5.14188e+06
[3] drag = (-9.96491e-14 1.07934e-13 -2.15383e-08)

Solver level total Eulerian momentum exchange:
  TotalForceImp:  (1.06139e-09 -1.25756e-09 4.1339e-06)
  Warning, these values are based on latest Ksl and Us but prev. iteration U!

DILUPBiCG:  Solving for Ux, Initial residual = 1, Final residual = 0.000350333, No Iterations 1
DILUPBiCG:  Solving for Uy, Initial residual = 1, Final residual = 0.000249825, No Iterations 1
DILUPBiCG:  Solving for Uz, Initial residual = 1, Final residual = 0.000174418, No Iterations 1
DICPCG:  Solving for p, Initial residual = 1, Final residual = 0.0941901, No Iterations 22
DICPCG:  Solving for p, Initial residual = 0.0014819, Final residual = 9.57127e-05, No Iterations 3
time step continuity errors : sum local = 1.99314e-07, global = -1.07587e-08, cumulative = -1.07587e-08
DICPCG:  Solving for p, Initial residual = 0.00120636, Final residual = 6.85795e-05, No Iterations 22
DICPCG:  Solving for p, Initial residual = 7.08696e-05, Final residual = 4.74557e-06, No Iterations 3
time step continuity errors : sum local = 9.56253e-09, global = 7.48694e-10, cumulative = -1.001e-08
DICPCG:  Solving for p, Initial residual = 3.03176e-05, Final residual = 2.38116e-06, No Iterations 3
DICPCG:  Solving for p, Initial residual = 2.38118e-06, Final residual = 9.34579e-07, No Iterations 13
time step continuity errors : sum local = 1.88309e-09, global = 1.27653e-10, cumulative = -9.88231e-09
DICPCG:  Solving for p, Initial residual = 1.55358e-06, Final residual = 6.67925e-07, No Iterations 1
DICPCG:  Solving for p, Initial residual = 6.67925e-07, Final residual = 6.67925e-07, No Iterations 0
time step continuity errors : sum local = 1.34561e-09, global = 1.1581e-10, cumulative = -9.7665e-09
ExecutionTime = 0.03 s  ClockTime = 0 s

Time = 0.0002

Courant Number mean: 0.00200312 max: 0.00231851

 Coupling...
Starting up LIGGGHTS
Executing command: 'run 100    '
Setting up run at Wed Mar 15 13:22:19 2023

Memory usage per processor = 6.7727 Mbytes
    Step    Atoms 
  350100      167 
  350200      167 
Loop time of 0.00579187 on 4 procs for 100 steps with 167 atoms, finish time Wed Mar 15 13:22:19 2023


Pair  time (%) = 0.00177115 (30.58)
Neigh time (%) = 0 (0)
Comm  time (%) = 0.000480017 (8.28778)
Outpt time (%) = 3.18258e-05 (0.549491)
Other time (%) = 0.00350887 (60.5828)

Nlocal:    41.75 ave 96 max 0 min
Histogram: 2 0 0 0 0 0 0 1 0 1
Nghost:    179.5 ave 364 max 0 min
Histogram: 2 0 0 0 0 0 0 0 0 2
Neighs:    1045.5 ave 2375 max 0 min
Histogram: 2 0 0 0 0 0 0 1 0 1

Total # of neighbors = 4182
Ave neighs/atom = 25.0419
Neighbor list builds = 0
Dangerous builds = 0
LIGGGHTS finished

 timeStepFraction() = 1
[3] cellI = 81
[3] index = 1
[0] cellI = 81
[0] index = 0
[0] Us = (-1.38496e-05 -6.14317e-06 -6.57093e-05)
[0] Ur = (6.13777e-05 -2.00935e-06 -0.00160592)
[0] dprim = 0.0002
[0] phi = 1
[0] rho = 1000
[0] nuf = 1e-06
[3] Us = (-6.66279e-06 5.43687e-06 -3.23401e-05)
[3] Ur = (1.66301e-05 -3.81112e-05 -0.00165321)
[3] dprim = 0.0002
[3] phi = 1
[3] rho = 1000
[3] nuf = 1e-06
[0] voidfraction = 0.429516
[0] Rep = 0
[0] betaP = 4.99481e+06
[0] drag = (1.28416e-09 -4.20401e-11 -3.35994e-08)
[3] voidfraction = 0.4221
[3] Rep = 0
[3] betaP = 5.14862e+06
[3] drag = (3.58653e-10 -8.21923e-10 -3.56538e-08)

Solver level total Eulerian momentum exchange:
  TotalForceImp:  (5.99597e-08 -1.14604e-07 8.94916e-06)
  Warning, these values are based on latest Ksl and Us but prev. iteration U!

DILUPBiCG:  Solving for Ux, Initial residual = 0.229827, Final residual = 8.32108e-05, No Iterations 1
DILUPBiCG:  Solving for Uy, Initial residual = 0.224125, Final residual = 8.15832e-05, No Iterations 1
DILUPBiCG:  Solving for Uz, Initial residual = 0.151697, Final residual = 4.04347e-05, No Iterations 1
DICPCG:  Solving for p, Initial residual = 0.00936404, Final residual = 0.000792082, No Iterations 22
DICPCG:  Solving for p, Initial residual = 0.00144416, Final residual = 0.000120709, No Iterations 3
time step continuity errors : sum local = 1.33752e-07, global = 7.21143e-09, cumulative = -2.55507e-09
DICPCG:  Solving for p, Initial residual = 0.00127136, Final residual = 4.83449e-05, No Iterations 22
DICPCG:  Solving for p, Initial residual = 4.70025e-05, Final residual = 3.2967e-06, No Iterations 3
time step continuity errors : sum local = 3.75029e-09, global = -1.88676e-10, cumulative = -2.74375e-09
DICPCG:  Solving for p, Initial residual = 2.66473e-05, Final residual = 2.42751e-06, No Iterations 3
DICPCG:  Solving for p, Initial residual = 2.42751e-06, Final residual = 9.53442e-07, No Iterations 17
time step continuity errors : sum local = 1.08461e-09, global = -1.864e-10, cumulative = -2.93015e-09
DICPCG:  Solving for p, Initial residual = 1.34383e-06, Final residual = 8.70169e-07, No Iterations 1
DICPCG:  Solving for p, Initial residual = 8.70169e-07, Final residual = 8.70169e-07, No Iterations 0
time step continuity errors : sum local = 9.90049e-10, global = -1.66419e-10, cumulative = -3.09657e-09
ExecutionTime = 0.04 s  ClockTime = 0 s

Time = 0.0003

Courant Number mean: 0.00200351 max: 0.00234636

 Coupling...
Starting up LIGGGHTS
Executing command: 'run 100    '
Setting up run at Wed Mar 15 13:22:19 2023

Memory usage per processor = 6.7727 Mbytes
    Step    Atoms 
  350200      167 
  350300      167 
Loop time of 0.00573074 on 4 procs for 100 steps with 167 atoms, finish time Wed Mar 15 13:22:19 2023


Pair  time (%) = 0.00174089 (30.3782)
Neigh time (%) = 0 (0)
Comm  time (%) = 0.000477194 (8.32692)
Outpt time (%) = 2.9904e-05 (0.521817)
Other time (%) = 0.00348275 (60.7731)

Nlocal:    41.75 ave 96 max 0 min
Histogram: 2 0 0 0 0 0 0 1 0 1
Nghost:    179.5 ave 364 max 0 min
Histogram: 2 0 0 0 0 0 0 0 0 2
Neighs:    1045.5 ave 2375 max 0 min
Histogram: 2 0 0 0 0 0 0 1 0 1

Total # of neighbors = 4182
Ave neighs/atom = 25.0419
Neighbor list builds = 0
Dangerous builds = 0
LIGGGHTS finished

 timeStepFraction() = 1
[3] cellI = 81
[3] index = 1
[0] cellI = 81
[0] index = 0
[0] Us = (-0.000142652 -7.23277e-05 -0.000622011)
[3] Us = (-5.52799e-05 -0.000131039 -0.000366222)
[0] Ur = (0.000202621 5.99948e-05 -0.00105574)
[0] dprim = 0.0002
[0] phi = 1
[0] rho = 1000
[0] nuf = 1e-06
[0] voidfraction = 0.428941
[0] Rep = 0
[0] betaP = 5.00187e+06
[3] Ur = (6.53927e-05 8.47616e-05 -0.00133932)
[3] dprim = 0.0002
[3] phi = 1
[3] rho = 1000
[3] nuf = 1e-06
[3] voidfraction = 0.42176
[3] Rep = 0
[0] drag = (4.24527e-09 1.257e-09 -2.21196e-08)
[3] betaP = 5.15307e+06
[3] drag = (1.41151e-09 1.82959e-09 -2.89093e-08)

Solver level total Eulerian momentum exchange:
  TotalForceImp:  (2.90639e-08 -5.74788e-08 1.48558e-06)
  Warning, these values are based on latest Ksl and Us but prev. iteration U!

DILUPBiCG:  Solving for Ux, Initial residual = 0.165231, Final residual = 5.52734e-05, No Iterations 1
DILUPBiCG:  Solving for Uy, Initial residual = 0.180629, Final residual = 6.61761e-05, No Iterations 1
DILUPBiCG:  Solving for Uz, Initial residual = 0.127328, Final residual = 3.55512e-05, No Iterations 1
DICPCG:  Solving for p, Initial residual = 0.027346, Final residual = 0.00127908, No Iterations 22
DICPCG:  Solving for p, Initial residual = 0.00763512, Final residual = 0.000238591, No Iterations 4
time step continuity errors : sum local = 4.60755e-08, global = 2.6894e-09, cumulative = -4.07165e-10
DICPCG:  Solving for p, Initial residual = 0.00833847, Final residual = 0.000382908, No Iterations 22
DICPCG:  Solving for p, Initial residual = 0.000318917, Final residual = 1.82207e-05, No Iterations 3
time step continuity errors : sum local = 4.17957e-09, global = -1.70199e-10, cumulative = -5.77364e-10
DICPCG:  Solving for p, Initial residual = 0.000205562, Final residual = 1.54952e-05, No Iterations 1
DICPCG:  Solving for p, Initial residual = 1.54972e-05, Final residual = 1.50956e-06, No Iterations 20
time step continuity errors : sum local = 3.46148e-10, global = 2.70122e-11, cumulative = -5.50352e-10
DICPCG:  Solving for p, Initial residual = 9.29666e-06, Final residual = 8.82304e-07, No Iterations 1
DICPCG:  Solving for p, Initial residual = 8.823e-07, Final residual = 8.823e-07, No Iterations 0
time step continuity errors : sum local = 2.02474e-10, global = 3.30323e-11, cumulative = -5.1732e-10
ExecutionTime = 0.05 s  ClockTime = 0 s

Time = 0.0004

Courant Number mean: 0.00200261 max: 0.00224615

 Coupling...
Starting up LIGGGHTS
Executing command: 'run 100    '
Setting up run at Wed Mar 15 13:22:19 2023

Memory usage per processor = 6.7727 Mbytes
    Step    Atoms 
  350300      167 
  350400      167 
Loop time of 0.00561252 on 4 procs for 100 steps with 167 atoms, finish time Wed Mar 15 13:22:19 2023


Pair  time (%) = 0.00173025 (30.8283)
Neigh time (%) = 0 (0)
Comm  time (%) = 0.000468934 (8.35515)
Outpt time (%) = 2.93185e-05 (0.522377)
Other time (%) = 0.00338402 (60.2941)

Nlocal:    41.75 ave 96 max 0 min
Histogram: 2 0 0 0 0 0 0 1 0 1
Nghost:    179.5 ave 364 max 0 min
Histogram: 2 0 0 0 0 0 0 0 0 2
Neighs:    1045.5 ave 2375 max 0 min
Histogram: 2 0 0 0 0 0 0 1 0 1

Total # of neighbors = 4182
Ave neighs/atom = 25.0419
Neighbor list builds = 0
Dangerous builds = 0
LIGGGHTS finished

 timeStepFraction() = 1
[3] cellI = 81
[3] index = 1
[0] cellI = 81
[0] index = 0
[0] Us = (-0.000268452 -0.000178991 -0.000220515)
[0] Ur = (0.00031357 0.000164525 -0.00147422)
[3] Us = (-0.000185315 8.27169e-05 0.000121589)
[3] Ur = (0.000177442 -0.000125941 -0.0018046)
[3] dprim = 0.0002
[3] phi = 1
[3] rho = 1000
[3] nuf = 1e-06
[3] voidfraction = 0.421684
[3] Rep = 0
[0] dprim = 0.0002
[0] phi = 1
[0] rho = 1000
[0] nuf = 1e-06
[0] voidfraction = 0.428513
[0] Rep = 0
[0] betaP = 5.01446e+06
[0] drag = (6.58639e-09 3.45576e-09 -3.09653e-08)
[3] betaP = 5.15882e+06
[3] drag = (3.83439e-09 -2.72148e-09 -3.8996e-08)

Solver level total Eulerian momentum exchange:
  TotalForceImp:  (1.26173e-07 -2.49627e-08 4.19465e-06)
  Warning, these values are based on latest Ksl and Us but prev. iteration U!

DILUPBiCG:  Solving for Ux, Initial residual = 0.203471, Final residual = 5.6616e-05, No Iterations 1
DILUPBiCG:  Solving for Uy, Initial residual = 0.147464, Final residual = 3.76098e-05, No Iterations 1
DILUPBiCG:  Solving for Uz, Initial residual = 0.07928, Final residual = 1.99864e-05, No Iterations 1
DICPCG:  Solving for p, Initial residual = 0.108016, Final residual = 0.00887926, No Iterations 21
DICPCG:  Solving for p, Initial residual = 0.00337949, Final residual = 0.000179397, No Iterations 4
time step continuity errors : sum local = 1.07028e-07, global = -1.77162e-08, cumulative = -1.82336e-08
DICPCG:  Solving for p, Initial residual = 0.00126521, Final residual = 0.000108089, No Iterations 12
DICPCG:  Solving for p, Initial residual = 0.000107902, Final residual = 9.09646e-06, No Iterations 16
time step continuity errors : sum local = 5.43676e-09, global = -5.22933e-10, cumulative = -1.87565e-08
DICPCG:  Solving for p, Initial residual = 3.38235e-05, Final residual = 2.55618e-06, No Iterations 20
DICPCG:  Solving for p, Initial residual = 2.55811e-06, Final residual = 4.346e-07, No Iterations 3
time step continuity errors : sum local = 2.57329e-10, global = 3.92649e-12, cumulative = -1.87526e-08
DICPCG:  Solving for p, Initial residual = 1.26065e-06, Final residual = 2.75698e-07, No Iterations 1
DICPCG:  Solving for p, Initial residual = 2.75698e-07, Final residual = 2.75698e-07, No Iterations 0
time step continuity errors : sum local = 1.63243e-10, global = 2.47469e-11, cumulative = -1.87278e-08
ExecutionTime = 0.06 s  ClockTime = 0 s

Time = 0.0005

Courant Number mean: 0.00200254 max: 0.00225678

 Coupling...
Starting up LIGGGHTS
Executing command: 'run 100    '
Setting up run at Wed Mar 15 13:22:19 2023

Memory usage per processor = 6.7727 Mbytes
    Step    Atoms 
  350400      167 
  350500      167 
Loop time of 0.00568492 on 4 procs for 100 steps with 167 atoms, finish time Wed Mar 15 13:22:19 2023


Pair  time (%) = 0.00174822 (30.7518)
Neigh time (%) = 0 (0)
Comm  time (%) = 0.000470047 (8.26833)
Outpt time (%) = 2.96467e-05 (0.521499)
Other time (%) = 0.00343701 (60.4583)

Nlocal:    41.75 ave 96 max 0 min
Histogram: 2 0 0 0 0 0 0 1 0 1
Nghost:    179.5 ave 364 max 0 min
Histogram: 2 0 0 0 0 0 0 0 0 2
Neighs:    1045.5 ave 2375 max 0 min
Histogram: 2 0 0 0 0 0 0 1 0 1

Total # of neighbors = 4182
Ave neighs/atom = 25.0419
Neighbor list builds = 0
Dangerous builds = 0
LIGGGHTS finished

 timeStepFraction() = 1
[3] cellI = 81
[3] index = 1
[0] cellI = 81
[0] index = 0
[3] Us = (6.13933e-05 6.00786e-05 8.04929e-05)
[3] Ur = (-9.13799e-05 -9.12695e-05 -0.00179484)
[3] dprim = 0.0002
[3] phi = 1
[3] rho = 1000
[3] nuf = 1e-06
[0] Us = (-0.000120714 -0.000292373 0.0001429)
[0] Ur = (0.000157913 0.000278556 -0.00183294)
[0] dprim = 0.0002
[0] phi = 1
[0] rho = 1000
[0] nuf = 1e-06
[3] voidfraction = 0.421877
[3] Rep = 0
[3] betaP = 5.15459e+06
[3] drag = (-1.97303e-09 -1.97064e-09 -3.87534e-08)
[0] voidfraction = 0.428438
[0] Rep = 0
[0] betaP = 5.019e+06
[0] drag = (3.31989e-09 5.85623e-09 -3.85349e-08)

Solver level total Eulerian momentum exchange:
  TotalForceImp:  (1.597e-07 2.78391e-08 9.21246e-06)
  Warning, these values are based on latest Ksl and Us but prev. iteration U!

DILUPBiCG:  Solving for Ux, Initial residual = 0.225407, Final residual = 8.08152e-05, No Iterations 1
DILUPBiCG:  Solving for Uy, Initial residual = 0.151172, Final residual = 4.54766e-05, No Iterations 1
DILUPBiCG:  Solving for Uz, Initial residual = 0.121116, Final residual = 2.87493e-05, No Iterations 1
DICPCG:  Solving for p, Initial residual = 0.0359072, Final residual = 0.00242342, No Iterations 22
DICPCG:  Solving for p, Initial residual = 0.00119422, Final residual = 9.31765e-05, No Iterations 3
time step continuity errors : sum local = 1.1212e-07, global = -4.19482e-09, cumulative = -2.29226e-08
DICPCG:  Solving for p, Initial residual = 0.000708405, Final residual = 5.27984e-05, No Iterations 22
DICPCG:  Solving for p, Initial residual = 5.37172e-05, Final residual = 4.12435e-06, No Iterations 3
time step continuity errors : sum local = 4.87568e-09, global = 1.82816e-10, cumulative = -2.27398e-08
DICPCG:  Solving for p, Initial residual = 1.65114e-05, Final residual = 1.64111e-06, No Iterations 4
DICPCG:  Solving for p, Initial residual = 1.64112e-06, Final residual = 7.96212e-07, No Iterations 1
time step continuity errors : sum local = 9.41224e-10, global = 2.92502e-10, cumulative = -2.24473e-08
DICPCG:  Solving for p, Initial residual = 1.04e-06, Final residual = 8.30399e-07, No Iterations 1
DICPCG:  Solving for p, Initial residual = 8.30399e-07, Final residual = 8.30399e-07, No Iterations 0
time step continuity errors : sum local = 9.81637e-10, global = 3.16308e-10, cumulative = -2.2131e-08
ExecutionTime = 0.07 s  ClockTime = 0 s

Time = 0.0006

Courant Number mean: 0.00200354 max: 0.00239221

 Coupling...
Starting up LIGGGHTS
Executing command: 'run 100    '
Setting up run at Wed Mar 15 13:22:19 2023

Memory usage per processor = 6.7727 Mbytes
    Step    Atoms 
  350500      167 
  350600      167 
Loop time of 0.00576846 on 4 procs for 100 steps with 167 atoms, finish time Wed Mar 15 13:22:19 2023


Pair  time (%) = 0.00176792 (30.6481)
Neigh time (%) = 0 (0)
Comm  time (%) = 0.000475502 (8.24313)
Outpt time (%) = 3.18095e-05 (0.551438)
Other time (%) = 0.00349323 (60.5574)

Nlocal:    41.75 ave 96 max 0 min
Histogram: 2 0 0 0 0 0 0 1 0 1
Nghost:    179.5 ave 364 max 0 min
Histogram: 2 0 0 0 0 0 0 0 0 2
Neighs:    1045.5 ave 2375 max 0 min
Histogram: 2 0 0 0 0 0 0 1 0 1

Total # of neighbors = 4182
Ave neighs/atom = 25.0419
Neighbor list builds = 0
Dangerous builds = 0
LIGGGHTS finished

 timeStepFraction() = 1
[3] cellI = 81
[3] index = 1
[3] Us = (1.1747e-05 -8.79809e-05 -2.41931e-06)
[3] Ur = (-2.26803e-05 3.76722e-05 -0.00177996)
[3] dprim = 0.0002
[3] phi = 1
[0] cellI = 81
[0] index = 0
[0] Us = (-8.8707e-05 4.05847e-05 4.77535e-05)
[0] Ur = (0.000126043 -5.10553e-05 -0.00176405)
[0] dprim = 0.0002
[0] phi = 1
[0] rho = 1000
[0] nuf = 1e-06
[0] voidfraction = 0.42856
[0] Rep = 0
[0] betaP = 5.0157e+06
[3] rho = 1000
[3] nuf = 1e-06
[3] voidfraction = 0.421842
[3] Rep = 0
[3] betaP = 5.15517e+06
[3] drag = (-4.89757e-10 8.13491e-10 -3.84364e-08)
[0] drag = (2.64812e-09 -1.07266e-09 -3.70622e-08)

Solver level total Eulerian momentum exchange:
  TotalForceImp:  (2.60241e-07 3.99099e-08 1.05085e-05)
  Warning, these values are based on latest Ksl and Us but prev. iteration U!

DILUPBiCG:  Solving for Ux, Initial residual = 0.196268, Final residual = 4.40997e-05, No Iterations 1
DILUPBiCG:  Solving for Uy, Initial residual = 0.174364, Final residual = 4.40979e-05, No Iterations 1
DILUPBiCG:  Solving for Uz, Initial residual = 0.0513284, Final residual = 1.78371e-05, No Iterations 1
DICPCG:  Solving for p, Initial residual = 0.0107038, Final residual = 0.00104334, No Iterations 11
DICPCG:  Solving for p, Initial residual = 0.00104779, Final residual = 8.51064e-05, No Iterations 22
time step continuity errors : sum local = 1.00623e-07, global = -3.13129e-09, cumulative = -2.52623e-08
DICPCG:  Solving for p, Initial residual = 0.000434136, Final residual = 3.314e-05, No Iterations 12
DICPCG:  Solving for p, Initial residual = 3.31322e-05, Final residual = 2.29299e-06, No Iterations 22
time step continuity errors : sum local = 2.99359e-09, global = -1.76694e-10, cumulative = -2.5439e-08
DICPCG:  Solving for p, Initial residual = 7.77181e-06, Final residual = 6.19332e-07, No Iterations 3
DICPCG:  Solving for p, Initial residual = 6.19334e-07, Final residual = 6.19334e-07, No Iterations 0
time step continuity errors : sum local = 8.04896e-10, global = -5.71152e-11, cumulative = -2.54961e-08
DICPCG:  Solving for p, Initial residual = 6.92353e-07, Final residual = 6.92353e-07, No Iterations 0
DICPCG:  Solving for p, Initial residual = 6.92353e-07, Final residual = 6.92353e-07, No Iterations 0
time step continuity errors : sum local = 8.99793e-10, global = -5.17498e-11, cumulative = -2.55479e-08
ExecutionTime = 0.08 s  ClockTime = 0 s

Time = 0.0007

Courant Number mean: 0.00200432 max: 0.00239775

 Coupling...
Starting up LIGGGHTS
Executing command: 'run 100    '
Setting up run at Wed Mar 15 13:22:19 2023

Memory usage per processor = 6.7727 Mbytes
    Step    Atoms 
  350600      167 
  350700      167 
Loop time of 0.00568989 on 4 procs for 100 steps with 167 atoms, finish time Wed Mar 15 13:22:19 2023


Pair  time (%) = 0.00173479 (30.489)
Neigh time (%) = 0 (0)
Comm  time (%) = 0.000469952 (8.25941)
Outpt time (%) = 2.9688e-05 (0.521767)
Other time (%) = 0.00345546 (60.7298)

Nlocal:    41.75 ave 96 max 0 min
Histogram: 2 0 0 0 0 0 0 1 0 1
Nghost:    179.5 ave 364 max 0 min
Histogram: 2 0 0 0 0 0 0 0 0 2
Neighs:    1045.75 ave 2376 max 0 min
Histogram: 2 0 0 0 0 0 0 1 0 1

Total # of neighbors = 4183
Ave neighs/atom = 25.0479
Neighbor list builds = 0
Dangerous builds = 0
LIGGGHTS finished

 timeStepFraction() = 1
[3] cellI = 81
[3] index = 1
[3] Us = (2.63201e-05 3.1447e-05 2.80982e-05)
[0] cellI = 81
[0] index = 0
[0] Us = (0.000121412 5.58214e-05 -1.83009e-05)
[0] Ur = (-4.59145e-05 -7.15427e-05 -0.00172717)
[0] dprim = 0.0002
[3] Ur = (-2.50219e-05 -0.000107847 -0.0018752)
[3] dprim = 0.0002
[3] phi = 1
[0] phi = 1
[0] rho = 1000
[0] nuf = 1e-06
[0] voidfraction = 0.428585
[0] Rep = 0
[0] betaP = 5.01486e+06
[3] rho = 1000
[3] nuf = 1e-06
[3] voidfraction = 0.421871
[3] Rep = 0
[3] betaP = 5.15541e+06
[3] drag = (-5.40345e-10 -2.32894e-09 -4.04949e-08)
[0] drag = (-9.64489e-10 -1.50284e-09 -3.62814e-08)

Solver level total Eulerian momentum exchange:
  TotalForceImp:  (-4.46381e-09 4.30068e-08 9.99221e-06)
  Warning, these values are based on latest Ksl and Us but prev. iteration U!

DILUPBiCG:  Solving for Ux, Initial residual = 0.225952, Final residual = 5.02218e-05, No Iterations 1
DILUPBiCG:  Solving for Uy, Initial residual = 0.129422, Final residual = 3.04066e-05, No Iterations 1
DILUPBiCG:  Solving for Uz, Initial residual = 0.03144, Final residual = 1.01613e-05, No Iterations 1
DICPCG:  Solving for p, Initial residual = 0.00649348, Final residual = 0.000582859, No Iterations 11
DICPCG:  Solving for p, Initial residual = 0.000579281, Final residual = 5.25658e-05, No Iterations 21
time step continuity errors : sum local = 6.89162e-08, global = 3.06348e-09, cumulative = -2.24844e-08
DICPCG:  Solving for p, Initial residual = 0.000226069, Final residual = 2.1675e-05, No Iterations 11
DICPCG:  Solving for p, Initial residual = 2.16781e-05, Final residual = 1.31317e-06, No Iterations 22
time step continuity errors : sum local = 1.62399e-09, global = -7.9863e-11, cumulative = -2.25643e-08
DICPCG:  Solving for p, Initial residual = 5.13613e-06, Final residual = 6.61889e-07, No Iterations 3
DICPCG:  Solving for p, Initial residual = 6.61889e-07, Final residual = 6.61889e-07, No Iterations 0
time step continuity errors : sum local = 8.20408e-10, global = 3.43678e-11, cumulative = -2.25299e-08
DICPCG:  Solving for p, Initial residual = 6.97856e-07, Final residual = 6.97856e-07, No Iterations 0
DICPCG:  Solving for p, Initial residual = 6.97856e-07, Final residual = 6.97856e-07, No Iterations 0
time step continuity errors : sum local = 8.64989e-10, global = 3.83116e-11, cumulative = -2.24916e-08
ExecutionTime = 0.09 s  ClockTime = 0 s

Time = 0.0008

Courant Number mean: 0.00200472 max: 0.00239804

 Coupling...
Starting up LIGGGHTS
Executing command: 'run 100    '
Setting up run at Wed Mar 15 13:22:19 2023

Memory usage per processor = 6.7727 Mbytes
    Step    Atoms 
  350700      167 
  350800      167 
Loop time of 0.00572417 on 4 procs for 100 steps with 167 atoms, finish time Wed Mar 15 13:22:19 2023


Pair  time (%) = 0.00174252 (30.4414)
Neigh time (%) = 0 (0)
Comm  time (%) = 0.000472424 (8.25315)
Outpt time (%) = 2.9472e-05 (0.51487)
Other time (%) = 0.00347975 (60.7906)

Nlocal:    41.75 ave 96 max 0 min
Histogram: 2 0 0 0 0 0 0 1 0 1
Nghost:    179.5 ave 364 max 0 min
Histogram: 2 0 0 0 0 0 0 0 0 2
Neighs:    1045.75 ave 2376 max 0 min
Histogram: 2 0 0 0 0 0 0 1 0 1

Total # of neighbors = 4183
Ave neighs/atom = 25.0479
Neighbor list builds = 0
Dangerous builds = 0
LIGGGHTS finished

 timeStepFraction() = 1
[0] cellI = 81
[0] index = 0
[0] Us = (4.6662e-05 3.14264e-05 -3.88678e-06)
[0] Ur = (6.50035e-05 -4.95825e-05 -0.00177626)
[0] dprim = 0.0002
[0] phi = 1
[0] rho = 1000
[0] nuf = 1e-06
[0] voidfraction = 0.428578
[0] Rep = 0
[0] betaP = 5.01542e+06
[0] drag = (1.36563e-09 -1.04166e-09 -3.73165e-08)
[3] cellI = 81
[3] index = 1
[3] Us = (4.54729e-05 0.000100277 1.12305e-05)
[3] Ur = (-2.59303e-05 -0.000195325 -0.00192134)
[3] dprim = 0.0002
[3] phi = 1
[3] rho = 1000
[3] nuf = 1e-06
[3] voidfraction = 0.421909
[3] Rep = 0
[3] betaP = 5.15508e+06
[3] drag = (-5.59928e-10 -4.21777e-09 -4.14885e-08)

Solver level total Eulerian momentum exchange:
  TotalForceImp:  (6.93716e-09 3.85302e-08 8.24457e-06)
  Warning, these values are based on latest Ksl and Us but prev. iteration U!

DILUPBiCG:  Solving for Ux, Initial residual = 0.108219, Final residual = 2.37097e-05, No Iterations 1
DILUPBiCG:  Solving for Uy, Initial residual = 0.121234, Final residual = 1.85334e-05, No Iterations 1
DILUPBiCG:  Solving for Uz, Initial residual = 0.0190306, Final residual = 6.26088e-06, No Iterations 1
DICPCG:  Solving for p, Initial residual = 0.00786164, Final residual = 0.000663143, No Iterations 22
DICPCG:  Solving for p, Initial residual = 0.000747566, Final residual = 5.79087e-05, No Iterations 4
time step continuity errors : sum local = 6.364e-08, global = 1.71736e-09, cumulative = -2.07742e-08
DICPCG:  Solving for p, Initial residual = 0.000274678, Final residual = 2.59455e-05, No Iterations 11
DICPCG:  Solving for p, Initial residual = 2.59609e-05, Final residual = 1.83596e-06, No Iterations 22
time step continuity errors : sum local = 2.01485e-09, global = -8.4257e-11, cumulative = -2.08585e-08
DICPCG:  Solving for p, Initial residual = 6.42232e-06, Final residual = 9.41756e-07, No Iterations 17
DICPCG:  Solving for p, Initial residual = 9.4168e-07, Final residual = 9.4168e-07, No Iterations 0
time step continuity errors : sum local = 1.03651e-09, global = -3.08514e-11, cumulative = -2.08893e-08
DICPCG:  Solving for p, Initial residual = 1.0504e-06, Final residual = 8.47081e-07, No Iterations 1
DICPCG:  Solving for p, Initial residual = 8.47081e-07, Final residual = 8.47081e-07, No Iterations 0
time step continuity errors : sum local = 9.32384e-10, global = -1.9715e-11, cumulative = -2.0909e-08
ExecutionTime = 0.1 s  ClockTime = 0 s

Time = 0.0009

Courant Number mean: 0.00200496 max: 0.00241531

 Coupling...
Starting up LIGGGHTS
Executing command: 'run 100    '
Setting up run at Wed Mar 15 13:22:19 2023

Memory usage per processor = 6.7727 Mbytes
    Step    Atoms 
  350800      167 
  350900      167 
Loop time of 0.00567176 on 4 procs for 100 steps with 167 atoms, finish time Wed Mar 15 13:22:19 2023


Pair  time (%) = 0.00173195 (30.5364)
Neigh time (%) = 0 (0)
Comm  time (%) = 0.000471244 (8.30859)
Outpt time (%) = 2.96485e-05 (0.522739)
Other time (%) = 0.00343892 (60.6323)

Nlocal:    41.75 ave 96 max 0 min
Histogram: 2 0 0 0 0 0 0 1 0 1
Nghost:    179.5 ave 364 max 0 min
Histogram: 2 0 0 0 0 0 0 0 0 2
Neighs:    1045.75 ave 2376 max 0 min
Histogram: 2 0 0 0 0 0 0 1 0 1

Total # of neighbors = 4183
Ave neighs/atom = 25.0479
Neighbor list builds = 0
Dangerous builds = 0
LIGGGHTS finished

 timeStepFraction() = 1
[0] cellI = 81
[0] index = 0
[0] Us = (-6.38426e-05 1.92363e-05 -1.66871e-05)
[0] Ur = (0.00015805 -4.68757e-05 -0.00176212)
[3] cellI = 81
[3] index = 1
[3] Us = (1.34852e-05 7.95e-05 -7.08238e-05)
[3] Ur = (7.30166e-06 -0.000186423 -0.00189399)
[0] dprim = 0.0002
[0] phi = 1
[0] rho = 1000
[3] dprim = 0.0002
[3] phi = 1
[3] rho = 1000
[3] nuf = 1e-06
[0] nuf = 1e-06
[0] voidfraction = 0.42856
[0] Rep = 0
[0] betaP = 5.01573e+06
[3] voidfraction = 0.421868
[3] Rep = 0
[3] betaP = 5.15569e+06
[3] drag = (1.57687e-10 -4.02601e-09 -4.09027e-08)
[0] drag = (3.3206e-09 -9.8485e-10 -3.70218e-08)

Solver level total Eulerian momentum exchange:
  TotalForceImp:  (-4.58291e-11 -1.31177e-07 6.99284e-06)
  Warning, these values are based on latest Ksl and Us but prev. iteration U!

DILUPBiCG:  Solving for Ux, Initial residual = 0.133002, Final residual = 2.3453e-05, No Iterations 1
DILUPBiCG:  Solving for Uy, Initial residual = 0.0924294, Final residual = 1.9805e-05, No Iterations 1
DILUPBiCG:  Solving for Uz, Initial residual = 0.0236964, Final residual = 4.6928e-06, No Iterations 1
DICPCG:  Solving for p, Initial residual = 0.00996762, Final residual = 0.00093952, No Iterations 13
DICPCG:  Solving for p, Initial residual = 0.000951202, Final residual = 5.69181e-05, No Iterations 22
time step continuity errors : sum local = 6.16319e-08, global = -3.59457e-09, cumulative = -2.45036e-08
DICPCG:  Solving for p, Initial residual = 0.000314806, Final residual = 3.11953e-05, No Iterations 11
DICPCG:  Solving for p, Initial residual = 3.11963e-05, Final residual = 1.44003e-06, No Iterations 20
time step continuity errors : sum local = 1.39566e-09, global = -3.07555e-11, cumulative = -2.45344e-08
DICPCG:  Solving for p, Initial residual = 8.21447e-06, Final residual = 5.77354e-07, No Iterations 3
DICPCG:  Solving for p, Initial residual = 5.77355e-07, Final residual = 5.77355e-07, No Iterations 0
time step continuity errors : sum local = 5.61273e-10, global = 4.43345e-11, cumulative = -2.449e-08
DICPCG:  Solving for p, Initial residual = 7.78552e-07, Final residual = 7.78552e-07, No Iterations 0
DICPCG:  Solving for p, Initial residual = 7.78552e-07, Final residual = 7.78552e-07, No Iterations 0
time step continuity errors : sum local = 7.56866e-10, global = 4.77533e-11, cumulative = -2.44423e-08
ExecutionTime = 0.11 s  ClockTime = 0 s

Time = 0.001

Courant Number mean: 0.00200501 max: 0.00246218

 Coupling...
Starting up LIGGGHTS
Executing command: 'run 100    '
Setting up run at Wed Mar 15 13:22:19 2023

Memory usage per processor = 6.7727 Mbytes
    Step    Atoms 
  350900      167 
  351000      167 
Loop time of 0.0070684 on 4 procs for 100 steps with 167 atoms, finish time Wed Mar 15 13:22:19 2023


Pair  time (%) = 0.0017375 (24.5812)
Neigh time (%) = 0 (0)
Comm  time (%) = 0.000468991 (6.63504)
Outpt time (%) = 0.0013647 (19.307)
Other time (%) = 0.00349721 (49.4767)

Nlocal:    41.75 ave 96 max 0 min
Histogram: 2 0 0 0 0 0 0 1 0 1
Nghost:    179.5 ave 364 max 0 min
Histogram: 2 0 0 0 0 0 0 0 0 2
Neighs:    1045.75 ave 2376 max 0 min
Histogram: 2 0 0 0 0 0 0 1 0 1

Total # of neighbors = 4183
Ave neighs/atom = 25.0479
Neighbor list builds = 0
Dangerous builds = 0
Executing command: 'write_restart ../DEM/liggghts.restartCFDEM'
System init for write_restart ...
LIGGGHTS finished

 timeStepFraction() = 1
[3] cellI = 81
[3] index = 1
[3] Us = (-6.50955e-05 -5.95712e-05 -1.31548e-05)
[3] Ur = (7.03278e-05 -3.48816e-05 -0.00189598)
[3] dprim = 0.0002
[3] phi = 1
[3] rho = 1000
[3] nuf = 1e-06
[3] voidfraction = 0.421803
[3] Rep = 0
[3] betaP = 5.15702e+06
[3] drag = (1.5192e-09 -7.53499e-10 -4.09562e-08)
[0] cellI = 81
[0] index = 0
[0] Us = (-6.7491e-06 -1.73114e-05 -1.66536e-05)
[0] Ur = (7.21314e-05 -9.27458e-06 -0.00167778)
[0] dprim = 0.0002
[0] phi = 1
[0] rho = 1000
[0] nuf = 1e-06
[0] voidfraction = 0.428538
[0] Rep = 0
[0] betaP = 5.01538e+06
[0] drag = (1.51536e-09 -1.94844e-10 -3.52474e-08)

Solver level total Eulerian momentum exchange:
  TotalForceImp:  (1.7887e-07 -4.74419e-07 8.90995e-06)
  Warning, these values are based on latest Ksl and Us but prev. iteration U!

DILUPBiCG:  Solving for Ux, Initial residual = 0.114939, Final residual = 2.36617e-05, No Iterations 1
DILUPBiCG:  Solving for Uy, Initial residual = 0.0809881, Final residual = 1.66063e-05, No Iterations 1
DILUPBiCG:  Solving for Uz, Initial residual = 0.0229141, Final residual = 7.27375e-06, No Iterations 1
DICPCG:  Solving for p, Initial residual = 0.00813504, Final residual = 0.000564945, No Iterations 22
DICPCG:  Solving for p, Initial residual = 0.000498779, Final residual = 4.02307e-05, No Iterations 3
time step continuity errors : sum local = 4.42554e-08, global = -4.0487e-09, cumulative = -2.8491e-08
DICPCG:  Solving for p, Initial residual = 0.000294943, Final residual = 2.42969e-05, No Iterations 10
DICPCG:  Solving for p, Initial residual = 2.42909e-05, Final residual = 1.9525e-06, No Iterations 17
time step continuity errors : sum local = 2.14826e-09, global = -5.44585e-11, cumulative = -2.85454e-08
DICPCG:  Solving for p, Initial residual = 6.41563e-06, Final residual = 8.82069e-07, No Iterations 2
DICPCG:  Solving for p, Initial residual = 8.82069e-07, Final residual = 8.82069e-07, No Iterations 0
time step continuity errors : sum local = 9.68395e-10, global = 1.22593e-10, cumulative = -2.84228e-08
DICPCG:  Solving for p, Initial residual = 9.50847e-07, Final residual = 9.50847e-07, No Iterations 0
DICPCG:  Solving for p, Initial residual = 9.50847e-07, Final residual = 9.50847e-07, No Iterations 0
time step continuity errors : sum local = 1.0439e-09, global = 1.30136e-10, cumulative = -2.82927e-08
ExecutionTime = 0.13 s  ClockTime = 0 s

Time = 0.0011

Courant Number mean: 0.00200499 max: 0.00242772

 Coupling...
Starting up LIGGGHTS
Executing command: 'run 100    '
Setting up run at Wed Mar 15 13:22:19 2023

Memory usage per processor = 6.7727 Mbytes
    Step    Atoms 
  351000      167 
  351100      167 
Loop time of 0.00566302 on 4 procs for 100 steps with 167 atoms, finish time Wed Mar 15 13:22:19 2023


Pair  time (%) = 0.00172729 (30.5012)
Neigh time (%) = 0 (0)
Comm  time (%) = 0.000469231 (8.28589)
Outpt time (%) = 2.9547e-05 (0.521754)
Other time (%) = 0.00343695 (60.6912)

Nlocal:    41.75 ave 96 max 0 min
Histogram: 2 0 0 0 0 0 0 1 0 1
Nghost:    179.5 ave 364 max 0 min
Histogram: 2 0 0 0 0 0 0 0 0 2
Neighs:    1045.75 ave 2376 max 0 min
Histogram: 2 0 0 0 0 0 0 1 0 1

Total # of neighbors = 4183
Ave neighs/atom = 25.0479
Neighbor list builds = 0
Dangerous builds = 0
Executing command: 'write_restart ../DEM/liggghts.restartCFDEM'
System init for write_restart ...
LIGGGHTS finished

 timeStepFraction() = 1
[3] cellI = 81
[3] index = 1
[3] Us = (-2.62178e-05 -3.79527e-05 1.65292e-05)
[3] Ur = (2.1936e-05 -8.99745e-05 -0.00194167)
[3] dprim = 0.0002
[3] phi = 1
[3] rho = 1000
[3] nuf = 1e-06
[3] voidfraction = 0.421828
[3] Rep = 0
[3] betaP = 5.1569e+06
[3] drag = (4.73843e-10 -1.94355e-09 -4.19424e-08)
[0] cellI = 81
[0] index = 0
[0] Us = (2.61839e-05 2.49599e-05 3.35722e-05)
[0] Ur = (4.87847e-05 -5.65387e-05 -0.00173341)
[0] dprim = 0.0002
[0] phi = 1
[0] rho = 1000
[0] nuf = 1e-06
[0] voidfraction = 0.428559
[0] Rep = 0
[0] betaP = 5.01544e+06
[0] drag = (1.0249e-09 -1.1878e-09 -3.64165e-08)

Solver level total Eulerian momentum exchange:
  TotalForceImp:  (1.24551e-07 -2.47631e-07 9.67687e-06)
  Warning, these values are based on latest Ksl and Us but prev. iteration U!

DILUPBiCG:  Solving for Ux, Initial residual = 0.0684613, Final residual = 2.05228e-05, No Iterations 1
DILUPBiCG:  Solving for Uy, Initial residual = 0.0680514, Final residual = 1.45003e-05, No Iterations 1
DILUPBiCG:  Solving for Uz, Initial residual = 0.0197876, Final residual = 3.82444e-06, No Iterations 1
DICPCG:  Solving for p, Initial residual = 0.00557981, Final residual = 0.000323245, No Iterations 22
DICPCG:  Solving for p, Initial residual = 0.000296033, Final residual = 2.67072e-05, No Iterations 3
time step continuity errors : sum local = 3.21556e-08, global = -1.37885e-09, cumulative = -2.96715e-08
DICPCG:  Solving for p, Initial residual = 0.000138255, Final residual = 1.32449e-05, No Iterations 15
DICPCG:  Solving for p, Initial residual = 1.32453e-05, Final residual = 7.15686e-07, No Iterations 22
time step continuity errors : sum local = 8.61657e-10, global = 2.85727e-11, cumulative = -2.9643e-08
DICPCG:  Solving for p, Initial residual = 3.8507e-06, Final residual = 8.73947e-07, No Iterations 1
DICPCG:  Solving for p, Initial residual = 8.73947e-07, Final residual = 8.73947e-07, No Iterations 0
time step continuity errors : sum local = 1.05051e-09, global = 9.97308e-11, cumulative = -2.95432e-08
DICPCG:  Solving for p, Initial residual = 9.19674e-07, Final residual = 9.19674e-07, No Iterations 0
DICPCG:  Solving for p, Initial residual = 9.19674e-07, Final residual = 9.19674e-07, No Iterations 0
time step continuity errors : sum local = 1.10548e-09, global = 1.0299e-10, cumulative = -2.94403e-08
ExecutionTime = 0.14 s  ClockTime = 0 s

Time = 0.0012

Courant Number mean: 0.00200508 max: 0.00241444

 Coupling...
Starting up LIGGGHTS
Executing command: 'run 100    '
Setting up run at Wed Mar 15 13:22:19 2023

Memory usage per processor = 6.7727 Mbytes
    Step    Atoms 
  351100      167 
  351200      167 
Loop time of 0.00569127 on 4 procs for 100 steps with 167 atoms, finish time Wed Mar 15 13:22:19 2023


Pair  time (%) = 0.00173032 (30.4031)
Neigh time (%) = 0 (0)
Comm  time (%) = 0.000471563 (8.28574)
Outpt time (%) = 2.99238e-05 (0.525783)
Other time (%) = 0.00345946 (60.7854)

Nlocal:    41.75 ave 96 max 0 min
Histogram: 2 0 0 0 0 0 0 1 0 1
Nghost:    179.5 ave 364 max 0 min
Histogram: 2 0 0 0 0 0 0 0 0 2
Neighs:    1045.75 ave 2376 max 0 min
Histogram: 2 0 0 0 0 0 0 1 0 1

Total # of neighbors = 4183
Ave neighs/atom = 25.0479
Neighbor list builds = 0
Dangerous builds = 0
Executing command: 'write_restart ../DEM/liggghts.restartCFDEM'
System init for write_restart ...
LIGGGHTS finished

 timeStepFraction() = 1
[3] cellI = 81
[3] index = 1
[3] Us = (8.08526e-05 8.20693e-05 -3.23212e-07)
[3] Ur = (-8.35803e-05 -0.000214982 -0.0019953)
[3] dprim = 0.0002
[3] phi = 1
[3] rho = 1000
[3] nuf = 1e-06
[3] voidfraction = 0.421825
[3] Rep = 0
[3] betaP = 5.15753e+06
[3] drag = (-1.80565e-09 -4.64442e-09 -4.31061e-08)
[0] cellI = 81
[0] index = 0
[0] Us = (1.42769e-05 2.4444e-05 -1.06037e-05)
[0] Ur = (6.56105e-05 -5.48005e-05 -0.0017466)
[0] dprim = 0.0002
[0] phi = 1
[0] rho = 1000
[0] nuf = 1e-06
[0] voidfraction = 0.42857
[0] Rep = 0
[0] betaP = 5.01533e+06
[0] drag = (1.37835e-09 -1.15126e-09 -3.66928e-08)

Solver level total Eulerian momentum exchange:
  TotalForceImp:  (2.50433e-07 -8.13698e-07 8.53115e-06)
  Warning, these values are based on latest Ksl and Us but prev. iteration U!

DILUPBiCG:  Solving for Ux, Initial residual = 0.116756, Final residual = 1.96115e-05, No Iterations 1
DILUPBiCG:  Solving for Uy, Initial residual = 0.140983, Final residual = 1.3139e-05, No Iterations 1
DILUPBiCG:  Solving for Uz, Initial residual = 0.0114517, Final residual = 3.36391e-06, No Iterations 1
DICPCG:  Solving for p, Initial residual = 0.0048707, Final residual = 0.000395478, No Iterations 13
DICPCG:  Solving for p, Initial residual = 0.000397054, Final residual = 1.52008e-05, No Iterations 19
time step continuity errors : sum local = 1.82161e-08, global = 1.17504e-09, cumulative = -2.82652e-08
DICPCG:  Solving for p, Initial residual = 0.000155213, Final residual = 1.54986e-05, No Iterations 6
DICPCG:  Solving for p, Initial residual = 1.54992e-05, Final residual = 1.2058e-06, No Iterations 22
time step continuity errors : sum local = 1.37607e-09, global = 4.7281e-11, cumulative = -2.82179e-08
DICPCG:  Solving for p, Initial residual = 3.38942e-06, Final residual = 9.06102e-07, No Iterations 1
DICPCG:  Solving for p, Initial residual = 9.06102e-07, Final residual = 9.06102e-07, No Iterations 0
time step continuity errors : sum local = 1.03525e-09, global = -2.13769e-11, cumulative = -2.82393e-08
DICPCG:  Solving for p, Initial residual = 9.02021e-07, Final residual = 9.02021e-07, No Iterations 0
DICPCG:  Solving for p, Initial residual = 9.02021e-07, Final residual = 9.02021e-07, No Iterations 0
time step continuity errors : sum local = 1.03059e-09, global = -2.47381e-11, cumulative = -2.8264e-08
ExecutionTime = 0.15 s  ClockTime = 0 s

Time = 0.0013

Courant Number mean: 0.00200517 max: 0.00243982

 Coupling...
Starting up LIGGGHTS
Executing command: 'run 100    '
Setting up run at Wed Mar 15 13:22:19 2023

Memory usage per processor = 6.7727 Mbytes
    Step    Atoms 
  351200      167 
  351300      167 
Loop time of 0.00568984 on 4 procs for 100 steps with 167 atoms, finish time Wed Mar 15 13:22:19 2023


Pair  time (%) = 0.00173722 (30.532)
Neigh time (%) = 0 (0)
Comm  time (%) = 0.000468476 (8.23356)
Outpt time (%) = 2.96935e-05 (0.521869)
Other time (%) = 0.00345445 (60.7126)

Nlocal:    41.75 ave 96 max 0 min
Histogram: 2 0 0 0 0 0 0 1 0 1
Nghost:    179.5 ave 364 max 0 min
Histogram: 2 0 0 0 0 0 0 0 0 2
Neighs:    1045.75 ave 2376 max 0 min
Histogram: 2 0 0 0 0 0 0 1 0 1

Total # of neighbors = 4183
Ave neighs/atom = 25.0479
Neighbor list builds = 0
Dangerous builds = 0
Executing command: 'write_restart ../DEM/liggghts.restartCFDEM'
System init for write_restart ...
LIGGGHTS finished

 timeStepFraction() = 1
[3] cellI = 81
[3] index = 1
[3] Us = (2.83074e-05 4.31038e-05 -2.17423e-06)
[3] Ur = (-2.73236e-05 -0.000163968 -0.00196104)
[3] dprim = 0.0002
[3] phi = 1
[3] rho = 1000
[3] nuf = 1e-06
[3] voidfraction = 0.421816
[3] Rep = 0
[3] betaP = 5.15735e+06
[3] drag = (-5.90273e-10 -3.54221e-09 -4.23645e-08)
[0] cellI = 81
[0] index = 0
[0] Us = (1.76271e-06 -2.73188e-05 -2.49963e-05)
[0] Ur = (7.79182e-05 -2.29582e-06 -0.00170547)
[0] dprim = 0.0002
[0] phi = 1
[0] rho = 1000
[0] nuf = 1e-06
[0] voidfraction = 0.428538
[0] Rep = 0
[0] betaP = 5.01562e+06
[0] drag = (1.63701e-09 -4.82337e-11 -3.58309e-08)

Solver level total Eulerian momentum exchange:
  TotalForceImp:  (2.60153e-08 -9.73389e-07 7.75398e-06)
  Warning, these values are based on latest Ksl and Us but prev. iteration U!

DILUPBiCG:  Solving for Ux, Initial residual = 0.096775, Final residual = 1.77329e-05, No Iterations 1
DILUPBiCG:  Solving for Uy, Initial residual = 0.128486, Final residual = 1.122e-05, No Iterations 1
DILUPBiCG:  Solving for Uz, Initial residual = 0.0119788, Final residual = 2.52287e-06, No Iterations 1
DICPCG:  Solving for p, Initial residual = 0.0070763, Final residual = 0.000689666, No Iterations 21
DICPCG:  Solving for p, Initial residual = 0.000757271, Final residual = 6.35722e-05, No Iterations 3
time step continuity errors : sum local = 6.58328e-08, global = 5.87452e-09, cumulative = -2.23895e-08
DICPCG:  Solving for p, Initial residual = 0.000207707, Final residual = 1.91853e-05, No Iterations 10
DICPCG:  Solving for p, Initial residual = 1.91961e-05, Final residual = 1.00535e-06, No Iterations 22
time step continuity errors : sum local = 1.03978e-09, global = -5.00876e-11, cumulative = -2.24396e-08
DICPCG:  Solving for p, Initial residual = 6.29664e-06, Final residual = 9.40254e-07, No Iterations 9
DICPCG:  Solving for p, Initial residual = 9.40233e-07, Final residual = 9.40233e-07, No Iterations 0
time step continuity errors : sum local = 9.73007e-10, global = -2.87728e-10, cumulative = -2.27273e-08
DICPCG:  Solving for p, Initial residual = 1.06286e-06, Final residual = 5.87715e-07, No Iterations 1
DICPCG:  Solving for p, Initial residual = 5.87715e-07, Final residual = 5.87715e-07, No Iterations 0
time step continuity errors : sum local = 6.08201e-10, global = -2.96343e-10, cumulative = -2.30237e-08
ExecutionTime = 0.16 s  ClockTime = 0 s

Time = 0.0014

Courant Number mean: 0.00200495 max: 0.00243527

 Coupling...
Starting up LIGGGHTS
Executing command: 'run 100    '
Setting up run at Wed Mar 15 13:22:19 2023

Memory usage per processor = 6.7727 Mbytes
    Step    Atoms 
  351300      167 
  351400      167 
Loop time of 0.005696 on 4 procs for 100 steps with 167 atoms, finish time Wed Mar 15 13:22:19 2023


Pair  time (%) = 0.00173107 (30.391)
Neigh time (%) = 0 (0)
Comm  time (%) = 0.000470295 (8.25658)
Outpt time (%) = 2.96773e-05 (0.521019)
Other time (%) = 0.00346496 (60.8314)

Nlocal:    41.75 ave 96 max 0 min
Histogram: 2 0 0 0 0 0 0 1 0 1
Nghost:    179.5 ave 364 max 0 min
Histogram: 2 0 0 0 0 0 0 0 0 2
Neighs:    1045.75 ave 2376 max 0 min
Histogram: 2 0 0 0 0 0 0 1 0 1

Total # of neighbors = 4183
Ave neighs/atom = 25.0479
Neighbor list builds = 0
Dangerous builds = 0
Executing command: 'write_restart ../DEM/liggghts.restartCFDEM'
System init for write_restart ...
LIGGGHTS finished

 timeStepFraction() = 1
[3] cellI = 81
[3] index = 1
[3] Us = (-5.80559e-05 -5.54589e-05 -2.87458e-06)
[0] cellI = 81
[0] index = 0
[0] Us = (-2.40904e-05 -5.3979e-06 1.2299e-06)
[0] Ur = (0.000100769 -3.02927e-05 -0.00165116)
[0] dprim = 0.0002
[0] phi = 1
[0] rho = 1000
[0] nuf = 1e-06
[3] Ur = (5.05473e-05 -8.08615e-05 -0.00190181)
[3] dprim = 0.0002
[3] phi = 1
[3] rho = 1000
[3] nuf = 1e-06
[3] voidfraction = 0.42183
[3] Rep = 0
[3] betaP = 5.15649e+06
[0] voidfraction = 0.428532
[0] Rep = 0
[0] betaP = 5.01528e+06
[3] drag = (1.09179e-09 -1.74656e-09 -4.10781e-08)
[0] drag = (2.11695e-09 -6.36388e-10 -3.46874e-08)

Solver level total Eulerian momentum exchange:
  TotalForceImp:  (3.44828e-07 -7.35484e-07 8.82101e-06)
  Warning, these values are based on latest Ksl and Us but prev. iteration U!

DILUPBiCG:  Solving for Ux, Initial residual = 0.119143, Final residual = 1.32856e-05, No Iterations 1
DILUPBiCG:  Solving for Uy, Initial residual = 0.096702, Final residual = 1.21042e-05, No Iterations 1
DILUPBiCG:  Solving for Uz, Initial residual = 0.00921551, Final residual = 2.80488e-06, No Iterations 1
DICPCG:  Solving for p, Initial residual = 0.0058767, Final residual = 0.000349977, No Iterations 3
DICPCG:  Solving for p, Initial residual = 0.000349046, Final residual = 3.01751e-05, No Iterations 22
time step continuity errors : sum local = 3.12899e-08, global = -3.49169e-11, cumulative = -2.30586e-08
DICPCG:  Solving for p, Initial residual = 0.000172012, Final residual = 8.45972e-06, No Iterations 3
DICPCG:  Solving for p, Initial residual = 8.45991e-06, Final residual = 6.17164e-07, No Iterations 22
time step continuity errors : sum local = 6.5525e-10, global = 1.0873e-12, cumulative = -2.30575e-08
DICPCG:  Solving for p, Initial residual = 4.57306e-06, Final residual = 9.87769e-07, No Iterations 1
DICPCG:  Solving for p, Initial residual = 9.8777e-07, Final residual = 9.8777e-07, No Iterations 0
time step continuity errors : sum local = 1.04824e-09, global = -4.00219e-11, cumulative = -2.30975e-08
DICPCG:  Solving for p, Initial residual = 1.02807e-06, Final residual = 5.3652e-07, No Iterations 1
DICPCG:  Solving for p, Initial residual = 5.3652e-07, Final residual = 5.3652e-07, No Iterations 0
time step continuity errors : sum local = 5.69363e-10, global = -4.67705e-11, cumulative = -2.31443e-08
ExecutionTime = 0.17 s  ClockTime = 0 s

Time = 0.0015

Courant Number mean: 0.00200475 max: 0.00238383

 Coupling...
Starting up LIGGGHTS
Executing command: 'run 100    '
Setting up run at Wed Mar 15 13:22:19 2023

Memory usage per processor = 6.7727 Mbytes
    Step    Atoms 
  351400      167 
  351500      167 
Loop time of 0.00567138 on 4 procs for 100 steps with 167 atoms, finish time Wed Mar 15 13:22:19 2023


Pair  time (%) = 0.00173271 (30.5518)
Neigh time (%) = 0 (0)
Comm  time (%) = 0.000471245 (8.30918)
Outpt time (%) = 2.96365e-05 (0.522562)
Other time (%) = 0.00343779 (60.6164)

Nlocal:    41.75 ave 96 max 0 min
Histogram: 2 0 0 0 0 0 0 1 0 1
Nghost:    179.5 ave 364 max 0 min
Histogram: 2 0 0 0 0 0 0 0 0 2
Neighs:    1045.75 ave 2376 max 0 min
Histogram: 2 0 0 0 0 0 0 1 0 1

Total # of neighbors = 4183
Ave neighs/atom = 25.0479
Neighbor list builds = 0
Dangerous builds = 0
Executing command: 'write_restart ../DEM/liggghts.restartCFDEM'
System init for write_restart ...
LIGGGHTS finished

 timeStepFraction() = 1
[0] cellI = 81
[0] index = 0
[3] cellI = 81
[3] index = 1
[0] Us = (-1.04066e-05 -4.478e-06 2.26525e-05)
[0] Ur = (8.47229e-05 -3.0513e-05 -0.00170952)
[0] dprim = 0.0002
[0] phi = 1
[3] Us = (-3.07957e-05 -4.69892e-05 4.31568e-06)
[3] Ur = (2.14747e-05 -9.51548e-05 -0.00194146)
[3] dprim = 0.0002
[3] phi = 1
[3] rho = 1000
[3] nuf = 1e-06
[3] voidfraction = 0.421827
[0] rho = 1000
[0] nuf = 1e-06
[0] voidfraction = 0.42855
[0] Rep = 0
[0] betaP = 5.01542e+06
[3] Rep = 0
[3] betaP = 5.15691e+06
[3] drag = (4.6388e-10 -2.05546e-09 -4.19378e-08)
[0] drag = (1.7799e-09 -6.41032e-10 -3.59144e-08)

Solver level total Eulerian momentum exchange:
  TotalForceImp:  (2.20654e-07 -3.94685e-07 9.38577e-06)
  Warning, these values are based on latest Ksl and Us but prev. iteration U!

DILUPBiCG:  Solving for Ux, Initial residual = 0.0656792, Final residual = 1.17537e-05, No Iterations 1
DILUPBiCG:  Solving for Uy, Initial residual = 0.0526208, Final residual = 1.44907e-05, No Iterations 1
DILUPBiCG:  Solving for Uz, Initial residual = 0.0114708, Final residual = 2.42033e-06, No Iterations 1
DICPCG:  Solving for p, Initial residual = 0.00766708, Final residual = 0.000594181, No Iterations 22
DICPCG:  Solving for p, Initial residual = 0.000531631, Final residual = 3.253e-05, No Iterations 3
time step continuity errors : sum local = 3.87734e-08, global = -3.57127e-09, cumulative = -2.67156e-08
DICPCG:  Solving for p, Initial residual = 0.000194017, Final residual = 1.8261e-05, No Iterations 10
DICPCG:  Solving for p, Initial residual = 1.82553e-05, Final residual = 9.91731e-07, No Iterations 22
time step continuity errors : sum local = 1.18223e-09, global = 1.0296e-11, cumulative = -2.67053e-08
DICPCG:  Solving for p, Initial residual = 5.38958e-06, Final residual = 6.90793e-07, No Iterations 3
DICPCG:  Solving for p, Initial residual = 6.90795e-07, Final residual = 6.90795e-07, No Iterations 0
time step continuity errors : sum local = 8.22522e-10, global = 1.79024e-10, cumulative = -2.65263e-08
DICPCG:  Solving for p, Initial residual = 8.22158e-07, Final residual = 8.22158e-07, No Iterations 0
DICPCG:  Solving for p, Initial residual = 8.22158e-07, Final residual = 8.22158e-07, No Iterations 0
time step continuity errors : sum local = 9.78935e-10, global = 1.8624e-10, cumulative = -2.634e-08
ExecutionTime = 0.18 s  ClockTime = 0 s

Time = 0.0016

Courant Number mean: 0.00200495 max: 0.0023871

 Coupling...
Starting up LIGGGHTS
Executing command: 'run 100    '
Setting up run at Wed Mar 15 13:22:19 2023

Memory usage per processor = 6.7727 Mbytes
    Step    Atoms 
  351500      167 
  351600      167 
Loop time of 0.00578888 on 4 procs for 100 steps with 167 atoms, finish time Wed Mar 15 13:22:19 2023


Pair  time (%) = 0.00172917 (29.8706)
Neigh time (%) = 0 (0)
Comm  time (%) = 0.00049899 (8.6198)
Outpt time (%) = 2.99065e-05 (0.51662)
Other time (%) = 0.00353081 (60.993)

Nlocal:    41.75 ave 96 max 0 min
Histogram: 2 0 0 0 0 0 0 1 0 1
Nghost:    179.5 ave 364 max 0 min
Histogram: 2 0 0 0 0 0 0 0 0 2
Neighs:    1045.75 ave 2376 max 0 min
Histogram: 2 0 0 0 0 0 0 1 0 1

Total # of neighbors = 4183
Ave neighs/atom = 25.0479
Neighbor list builds = 0
Dangerous builds = 0
Executing command: 'write_restart ../DEM/liggghts.restartCFDEM'
System init for write_restart ...
LIGGGHTS finished

 timeStepFraction() = 1
[0] cellI = 81
[0] index = 0
[0] Us = (2.60053e-06 1.85425e-06 2.04499e-05)
[0] Ur = (7.4391e-05 -3.54715e-05 -0.00177521)
[3] cellI = 81
[3] index = 1
[3] Us = (1.31444e-05 7.16867e-06 9.73776e-06)
[3] Ur = (-2.28277e-05 -0.000148377 -0.0020228)
[3] dprim = 0.0002
[0] dprim = 0.0002
[0] phi = 1
[0] rho = 1000
[3] phi = 1
[3] rho = 1000
[3] nuf = 1e-06
[3] voidfraction = 0.421828
[3] Rep = 0
[0] nuf = 1e-06
[0] voidfraction = 0.428567
[0] Rep = 0
[0] betaP = 5.01563e+06
[0] drag = (1.56291e-09 -7.45236e-10 -3.7296e-08)
[3] betaP = 5.15762e+06
[3] drag = (-4.93173e-10 -3.20556e-09 -4.37009e-08)

Solver level total Eulerian momentum exchange:
  TotalForceImp:  (2.3082e-07 1.46754e-07 9.48176e-06)
  Warning, these values are based on latest Ksl and Us but prev. iteration U!

DILUPBiCG:  Solving for Ux, Initial residual = 0.0953495, Final residual = 1.81124e-05, No Iterations 1
DILUPBiCG:  Solving for Uy, Initial residual = 0.0820575, Final residual = 1.37838e-05, No Iterations 1
DILUPBiCG:  Solving for Uz, Initial residual = 0.00629552, Final residual = 1.71815e-06, No Iterations 1
DICPCG:  Solving for p, Initial residual = 0.00524295, Final residual = 0.000244743, No Iterations 1
DICPCG:  Solving for p, Initial residual = 0.000243751, Final residual = 1.50386e-05, No Iterations 23
time step continuity errors : sum local = 1.80566e-08, global = 1.87022e-10, cumulative = -2.6153e-08
DICPCG:  Solving for p, Initial residual = 7.35727e-05, Final residual = 5.1519e-06, No Iterations 3
DICPCG:  Solving for p, Initial residual = 5.15171e-06, Final residual = 6.70428e-07, No Iterations 21
time step continuity errors : sum local = 8.1608e-10, global = -9.06411e-12, cumulative = -2.61621e-08
DICPCG:  Solving for p, Initial residual = 2.27979e-06, Final residual = 5.70086e-07, No Iterations 1
DICPCG:  Solving for p, Initial residual = 5.70087e-07, Final residual = 5.70087e-07, No Iterations 0
time step continuity errors : sum local = 6.93715e-10, global = -1.27945e-11, cumulative = -2.61749e-08
DICPCG:  Solving for p, Initial residual = 6.20271e-07, Final residual = 6.20271e-07, No Iterations 0
DICPCG:  Solving for p, Initial residual = 6.20271e-07, Final residual = 6.20271e-07, No Iterations 0
time step continuity errors : sum local = 7.54783e-10, global = -1.30852e-11, cumulative = -2.61879e-08
ExecutionTime = 0.19 s  ClockTime = 0 s

Time = 0.0017

Courant Number mean: 0.00200502 max: 0.00238996

 Coupling...
Starting up LIGGGHTS
Executing command: 'run 100    '
Setting up run at Wed Mar 15 13:22:19 2023

Memory usage per processor = 6.7727 Mbytes
    Step    Atoms 
  351600      167 
  351700      167 
Loop time of 0.00570214 on 4 procs for 100 steps with 167 atoms, finish time Wed Mar 15 13:22:19 2023


Pair  time (%) = 0.00173546 (30.4352)
Neigh time (%) = 0 (0)
Comm  time (%) = 0.000472537 (8.28702)
Outpt time (%) = 3.00212e-05 (0.526491)
Other time (%) = 0.00346412 (60.7513)

Nlocal:    41.75 ave 96 max 0 min
Histogram: 2 0 0 0 0 0 0 1 0 1
Nghost:    179.5 ave 364 max 0 min
Histogram: 2 0 0 0 0 0 0 0 0 2
Neighs:    1045.75 ave 2376 max 0 min
Histogram: 2 0 0 0 0 0 0 1 0 1

Total # of neighbors = 4183
Ave neighs/atom = 25.0479
Neighbor list builds = 0
Dangerous builds = 0
Executing command: 'write_restart ../DEM/liggghts.restartCFDEM'
System init for write_restart ...
LIGGGHTS finished

 timeStepFraction() = 1
[0] cellI = 81
[0] index = 0
[0] Us = (4.38008e-06 -6.58945e-06 -1.20401e-05)
[0] Ur = (8.55822e-05 -2.49589e-05 -0.00181459)
[0] dprim = 0.0002
[0] phi = 1
[0] rho = 1000
[0] nuf = 1e-06
[0] voidfraction = 0.428577
[0] Rep = 0
[0] betaP = 5.01579e+06
[0] drag = (1.79809e-09 -5.24388e-10 -3.81247e-08)
[3] cellI = 81
[3] index = 1
[3] Us = (1.34472e-05 2.1142e-05 -4.24545e-06)
[3] Ur = (-1.74978e-05 -0.000157852 -0.0020669)
[3] dprim = 0.0002
[3] phi = 1
[3] rho = 1000
[3] nuf = 1e-06
[3] voidfraction = 0.421831
[3] Rep = 0
[3] betaP = 5.15796e+06
[3] drag = (-3.7805e-10 -3.41049e-09 -4.46566e-08)

Solver level total Eulerian momentum exchange:
  TotalForceImp:  (-4.30913e-08 -1.16726e-07 7.05412e-06)
  Warning, these values are based on latest Ksl and Us but prev. iteration U!

DILUPBiCG:  Solving for Ux, Initial residual = 0.0890808, Final residual = 2.24674e-05, No Iterations 1
DILUPBiCG:  Solving for Uy, Initial residual = 0.0585805, Final residual = 1.28823e-05, No Iterations 1
DILUPBiCG:  Solving for Uz, Initial residual = 0.0134131, Final residual = 2.69042e-06, No Iterations 1
DICPCG:  Solving for p, Initial residual = 0.0101943, Final residual = 0.000743492, No Iterations 22
DICPCG:  Solving for p, Initial residual = 0.000886581, Final residual = 8.62609e-05, No Iterations 3
time step continuity errors : sum local = 8.75855e-08, global = 8.60891e-09, cumulative = -1.7579e-08
DICPCG:  Solving for p, Initial residual = 0.000400648, Final residual = 2.51802e-05, No Iterations 10
DICPCG:  Solving for p, Initial residual = 2.51938e-05, Final residual = 1.31081e-06, No Iterations 17
time step continuity errors : sum local = 1.32908e-09, global = 2.23116e-10, cumulative = -1.73559e-08
DICPCG:  Solving for p, Initial residual = 1.0072e-05, Final residual = 9.44806e-07, No Iterations 5
DICPCG:  Solving for p, Initial residual = 9.44803e-07, Final residual = 9.44803e-07, No Iterations 0
time step continuity errors : sum local = 9.60183e-10, global = -7.15044e-11, cumulative = -1.74274e-08
DICPCG:  Solving for p, Initial residual = 1.14696e-06, Final residual = 5.67119e-07, No Iterations 1
DICPCG:  Solving for p, Initial residual = 5.67119e-07, Final residual = 5.67119e-07, No Iterations 0
time step continuity errors : sum local = 5.76351e-10, global = -1.08384e-10, cumulative = -1.75358e-08
ExecutionTime = 0.2 s  ClockTime = 0 s

Time = 0.0018

Courant Number mean: 0.0020049 max: 0.00239072

 Coupling...
Starting up LIGGGHTS
Executing command: 'run 100    '
Setting up run at Wed Mar 15 13:22:19 2023

Memory usage per processor = 6.7727 Mbytes
    Step    Atoms 
  351700      167 
  351800      167 
Loop time of 0.00567547 on 4 procs for 100 steps with 167 atoms, finish time Wed Mar 15 13:22:19 2023


Pair  time (%) = 0.00173041 (30.4894)
Neigh time (%) = 0 (0)
Comm  time (%) = 0.000468757 (8.25934)
Outpt time (%) = 2.97317e-05 (0.523864)
Other time (%) = 0.00344657 (60.7274)

Nlocal:    41.75 ave 96 max 0 min
Histogram: 2 0 0 0 0 0 0 1 0 1
Nghost:    179.5 ave 364 max 0 min
Histogram: 2 0 0 0 0 0 0 0 0 2
Neighs:    1045.75 ave 2376 max 0 min
Histogram: 2 0 0 0 0 0 0 1 0 1

Total # of neighbors = 4183
Ave neighs/atom = 25.0479
Neighbor list builds = 0
Dangerous builds = 0
Executing command: 'write_restart ../DEM/liggghts.restartCFDEM'
System init for write_restart ...
LIGGGHTS finished

 timeStepFraction() = 1
[3] cellI = 81
[3] index = 1
[3] Us = (-2.29594e-06 -1.79837e-06 -1.95709e-05)
[3] Ur = (-1.25454e-05 -0.000144407 -0.00188814)
[3] dprim = 0.0002
[3] phi = 1
[3] rho = 1000
[3] nuf = 1e-06
[3] voidfraction = 0.42181
[3] Rep = 0
[3] betaP = 5.15683e+06
[3] drag = (-2.70992e-10 -3.11932e-09 -4.07854e-08)
[0] cellI = 81
[0] index = 0
[0] Us = (-6.34962e-08 -6.33356e-06 -3.20768e-05)
[0] Ur = (7.94164e-05 -2.65253e-05 -0.00164565)
[0] dprim = 0.0002
[0] phi = 1
[0] rho = 1000
[0] nuf = 1e-06
[0] voidfraction = 0.428542
[0] Rep = 0
[0] betaP = 5.01502e+06
[0] drag = (1.66829e-09 -5.57214e-10 -3.45699e-08)

Solver level total Eulerian momentum exchange:
  TotalForceImp:  (3.02895e-07 -9.41705e-07 6.93301e-06)
  Warning, these values are based on latest Ksl and Us but prev. iteration U!

DILUPBiCG:  Solving for Ux, Initial residual = 0.105236, Final residual = 1.5917e-05, No Iterations 1
DILUPBiCG:  Solving for Uy, Initial residual = 0.109828, Final residual = 1.24003e-05, No Iterations 1
DILUPBiCG:  Solving for Uz, Initial residual = 0.00830851, Final residual = 2.91958e-06, No Iterations 1
DICPCG:  Solving for p, Initial residual = 0.0152892, Final residual = 0.00150055, No Iterations 10
DICPCG:  Solving for p, Initial residual = 0.00150683, Final residual = 9.71067e-05, No Iterations 18
time step continuity errors : sum local = 9.77622e-08, global = -1.71887e-08, cumulative = -3.47245e-08
DICPCG:  Solving for p, Initial residual = 0.000350656, Final residual = 2.35468e-05, No Iterations 10
DICPCG:  Solving for p, Initial residual = 2.3526e-05, Final residual = 1.52143e-06, No Iterations 22
time step continuity errors : sum local = 1.32229e-09, global = 7.5693e-12, cumulative = -3.47169e-08
DICPCG:  Solving for p, Initial residual = 1.36441e-05, Final residual = 8.47273e-07, No Iterations 9
DICPCG:  Solving for p, Initial residual = 8.47338e-07, Final residual = 8.47338e-07, No Iterations 0
time step continuity errors : sum local = 7.37851e-10, global = 7.69941e-11, cumulative = -3.46399e-08
DICPCG:  Solving for p, Initial residual = 1.05135e-06, Final residual = 5.73859e-07, No Iterations 1
DICPCG:  Solving for p, Initial residual = 5.73859e-07, Final residual = 5.73859e-07, No Iterations 0
time step continuity errors : sum local = 4.99709e-10, global = 8.90346e-11, cumulative = -3.45509e-08
ExecutionTime = 0.21 s  ClockTime = 0 s

Time = 0.0019

Courant Number mean: 0.00200474 max: 0.00238683

 Coupling...
Starting up LIGGGHTS
Executing command: 'run 100    '
Setting up run at Wed Mar 15 13:22:19 2023

Memory usage per processor = 6.7727 Mbytes
    Step    Atoms 
  351800      167 
  351900      167 
Loop time of 0.00567335 on 4 procs for 100 steps with 167 atoms, finish time Wed Mar 15 13:22:19 2023


Pair  time (%) = 0.00172707 (30.4418)
Neigh time (%) = 0 (0)
Comm  time (%) = 0.000468321 (8.25476)
Outpt time (%) = 2.96773e-05 (0.5231)
Other time (%) = 0.00344828 (60.7803)

Nlocal:    41.75 ave 96 max 0 min
Histogram: 2 0 0 0 0 0 0 1 0 1
Nghost:    179.5 ave 364 max 0 min
Histogram: 2 0 0 0 0 0 0 0 0 2
Neighs:    1045.75 ave 2376 max 0 min
Histogram: 2 0 0 0 0 0 0 1 0 1

Total # of neighbors = 4183
Ave neighs/atom = 25.0479
Neighbor list builds = 0
Dangerous builds = 0
Executing command: 'write_restart ../DEM/liggghts.restartCFDEM'
System init for write_restart ...
LIGGGHTS finished

 timeStepFraction() = 1
[3] cellI = 81
[3] index = 1
[3] Us = (-1.62811e-05 -2.51014e-05 1.67621e-05)
[0] cellI = 81
[0] index = 0
[0] Us = (-1.15953e-05 -8.50292e-06 2.90051e-05)
[0] Ur = (7.92015e-05 -2.64879e-05 -0.00149748)
[3] Ur = (-5.43576e-06 -0.000125867 -0.00166412)
[3] dprim = 0.0002
[3] phi = 1
[3] rho = 1000
[0] dprim = 0.0002
[0] phi = 1
[0] rho = 1000
[0] nuf = 1e-06
[0] voidfraction = 0.428558
[0] Rep = 0
[3] nuf = 1e-06
[3] voidfraction = 0.421834
[3] Rep = 0
[0] betaP = 5.0134e+06
[0] drag = (1.66324e-09 -5.56248e-10 -3.14472e-08)
[3] betaP = 5.15436e+06
[3] drag = (-1.17361e-10 -2.71752e-09 -3.59292e-08)

Solver level total Eulerian momentum exchange:
  TotalForceImp:  (2.2487e-07 -3.57349e-07 8.90215e-06)
  Warning, these values are based on latest Ksl and Us but prev. iteration U!

DILUPBiCG:  Solving for Ux, Initial residual = 0.102338, Final residual = 2.89319e-05, No Iterations 1
DILUPBiCG:  Solving for Uy, Initial residual = 0.0943313, Final residual = 3.49968e-05, No Iterations 1
DILUPBiCG:  Solving for Uz, Initial residual = 0.0302271, Final residual = 9.72769e-06, No Iterations 1
DICPCG:  Solving for p, Initial residual = 0.0241475, Final residual = 0.00238681, No Iterations 22
DICPCG:  Solving for p, Initial residual = 0.00167873, Final residual = 0.000165801, No Iterations 3
time step continuity errors : sum local = 2.05953e-07, global = -2.27793e-08, cumulative = -5.73302e-08
DICPCG:  Solving for p, Initial residual = 0.000621295, Final residual = 4.30287e-05, No Iterations 10
DICPCG:  Solving for p, Initial residual = 4.29922e-05, Final residual = 2.17898e-06, No Iterations 21
time step continuity errors : sum local = 2.70722e-09, global = 1.36285e-10, cumulative = -5.71939e-08
DICPCG:  Solving for p, Initial residual = 1.78474e-05, Final residual = 1.51011e-06, No Iterations 7
DICPCG:  Solving for p, Initial residual = 1.51016e-06, Final residual = 5.9531e-07, No Iterations 20
time step continuity errors : sum local = 7.38162e-10, global = -4.72174e-12, cumulative = -5.71986e-08
DICPCG:  Solving for p, Initial residual = 9.41665e-07, Final residual = 9.41665e-07, No Iterations 0
DICPCG:  Solving for p, Initial residual = 9.41665e-07, Final residual = 9.41665e-07, No Iterations 0
time step continuity errors : sum local = 1.16738e-09, global = -2.25126e-12, cumulative = -5.72009e-08
ExecutionTime = 0.22 s  ClockTime = 0 s

Time = 0.002

Courant Number mean: 0.00200494 max: 0.00240218

 Coupling...
Starting up LIGGGHTS
Executing command: 'run 100    '
Setting up run at Wed Mar 15 13:22:19 2023

Memory usage per processor = 6.7727 Mbytes
    Step    Atoms 
  351900      167 
  352000      167 
Loop time of 0.00705214 on 4 procs for 100 steps with 167 atoms, finish time Wed Mar 15 13:22:19 2023


Pair  time (%) = 0.00172954 (24.525)
Neigh time (%) = 0 (0)
Comm  time (%) = 0.000471118 (6.68049)
Outpt time (%) = 0.00136299 (19.3273)
Other time (%) = 0.0034885 (49.4672)

Nlocal:    41.75 ave 96 max 0 min
Histogram: 2 0 0 0 0 0 0 1 0 1
Nghost:    179.5 ave 364 max 0 min
Histogram: 2 0 0 0 0 0 0 0 0 2
Neighs:    1045.75 ave 2376 max 0 min
Histogram: 2 0 0 0 0 0 0 1 0 1

Total # of neighbors = 4183
Ave neighs/atom = 25.0479
Neighbor list builds = 0
Dangerous builds = 0
Executing command: 'write_restart ../DEM/liggghts.restartCFDEM'
System init for write_restart ...
LIGGGHTS finished

 timeStepFraction() = 1
[0] cellI = 81
[0] index = 0
[3] cellI = 81
[3] index = 1
[3] Us = (5.88604e-06 -2.14229e-05 4.05185e-05)
[0] Us = (1.75077e-05 2.03497e-06 6.44671e-05)
[0] Ur = (5.42125e-05 -3.53409e-05 -0.00170656)
[0] dprim = 0.0002
[0] phi = 1
[0] rho = 1000
[0] nuf = 1e-06
[0] voidfraction = 0.428625
[0] Rep = 0
[3] Ur = (-2.20232e-05 -0.000122412 -0.0019092)
[3] dprim = 0.0002
[3] phi = 1
[3] rho = 1000
[3] nuf = 1e-06
[3] voidfraction = 0.421886
[3] Rep = 0
[0] betaP = 5.01385e+06
[0] drag = (1.13857e-09 -7.42228e-10 -3.58411e-08)
[3] betaP = 5.15541e+06
[3] drag = (-4.75589e-10 -2.64347e-09 -4.12291e-08)

Solver level total Eulerian momentum exchange:
  TotalForceImp:  (3.45618e-07 -7.5766e-08 1.01537e-05)
  Warning, these values are based on latest Ksl and Us but prev. iteration U!

DILUPBiCG:  Solving for Ux, Initial residual = 0.0908152, Final residual = 2.71827e-05, No Iterations 1
DILUPBiCG:  Solving for Uy, Initial residual = 0.070238, Final residual = 2.21783e-05, No Iterations 1
DILUPBiCG:  Solving for Uz, Initial residual = 0.0211315, Final residual = 7.76466e-06, No Iterations 1
DICPCG:  Solving for p, Initial residual = 0.00809063, Final residual = 0.000763815, No Iterations 1
DICPCG:  Solving for p, Initial residual = 0.000760184, Final residual = 3.96802e-05, No Iterations 23
time step continuity errors : sum local = 4.97632e-08, global = 1.10335e-09, cumulative = -5.60975e-08
DICPCG:  Solving for p, Initial residual = 0.000173244, Final residual = 1.33617e-05, No Iterations 11
DICPCG:  Solving for p, Initial residual = 1.33608e-05, Final residual = 6.40444e-07, No Iterations 22
time step continuity errors : sum local = 8.38198e-10, global = 2.09184e-11, cumulative = -5.60766e-08
DICPCG:  Solving for p, Initial residual = 4.17581e-06, Final residual = 8.29832e-07, No Iterations 1
DICPCG:  Solving for p, Initial residual = 8.29833e-07, Final residual = 8.29833e-07, No Iterations 0
time step continuity errors : sum local = 1.08452e-09, global = -4.22493e-11, cumulative = -5.61188e-08
DICPCG:  Solving for p, Initial residual = 8.70494e-07, Final residual = 8.70494e-07, No Iterations 0
DICPCG:  Solving for p, Initial residual = 8.70494e-07, Final residual = 8.70494e-07, No Iterations 0
time step continuity errors : sum local = 1.13767e-09, global = -4.59601e-11, cumulative = -5.61648e-08
ExecutionTime = 0.25 s  ClockTime = 0 s

Time = 0.0021

Courant Number mean: 0.00200516 max: 0.00239918

 Coupling...
Starting up LIGGGHTS
Executing command: 'run 100    '
Setting up run at Wed Mar 15 13:22:19 2023

Memory usage per processor = 6.7727 Mbytes
    Step    Atoms 
  352000      167 
  352100      167 
Loop time of 0.00568594 on 4 procs for 100 steps with 167 atoms, finish time Wed Mar 15 13:22:19 2023


Pair  time (%) = 0.00173864 (30.5779)
Neigh time (%) = 0 (0)
Comm  time (%) = 0.00047081 (8.28024)
Outpt time (%) = 2.96072e-05 (0.52071)
Other time (%) = 0.00344688 (60.6212)

Nlocal:    41.75 ave 96 max 0 min
Histogram: 2 0 0 0 0 0 0 1 0 1
Nghost:    179.5 ave 364 max 0 min
Histogram: 2 0 0 0 0 0 0 0 0 2
Neighs:    1045.75 ave 2376 max 0 min
Histogram: 2 0 0 0 0 0 0 1 0 1

Total # of neighbors = 4183
Ave neighs/atom = 25.0479
Neighbor list builds = 0
Dangerous builds = 0
Executing command: 'write_restart ../DEM/liggghts.restartCFDEM'
System init for write_restart ...
LIGGGHTS finished

 timeStepFraction() = 1
[3] cellI = 81
[3] index = 1
[3] Us = (-9.91587e-07 1.59109e-06 -2.87626e-05)
[3] Ur = (-1.07382e-05 -0.000146397 -0.00201005)
[3] dprim = 0.0002
[3] phi = 1
[3] rho = 1000
[3] nuf = 1e-06
[3] voidfraction = 0.421849
[3] Rep = 0
[3] betaP = 5.15706e+06
[3] drag = (-2.31965e-10 -3.16244e-09 -4.34207e-08)
[0] cellI = 81
[0] index = 0
[0] Us = (-4.23528e-06 -3.11082e-06 -4.52861e-05)
[0] Ur = (8.93186e-05 -2.87232e-05 -0.00172972)
[0] dprim = 0.0002
[0] phi = 1
[0] rho = 1000
[0] nuf = 1e-06
[0] voidfraction = 0.428611
[0] Rep = 0
[0] betaP = 5.01436e+06
[0] drag = (1.87606e-09 -6.03306e-10 -3.63312e-08)

Solver level total Eulerian momentum exchange:
  TotalForceImp:  (-2.31352e-07 9.97275e-08 6.60229e-06)
  Warning, these values are based on latest Ksl and Us but prev. iteration U!

DILUPBiCG:  Solving for Ux, Initial residual = 0.116005, Final residual = 2.44973e-05, No Iterations 1
DILUPBiCG:  Solving for Uy, Initial residual = 0.10113, Final residual = 2.13833e-05, No Iterations 1
DILUPBiCG:  Solving for Uz, Initial residual = 0.0356724, Final residual = 9.32622e-06, No Iterations 1
DICPCG:  Solving for p, Initial residual = 0.011803, Final residual = 0.000491076, No Iterations 23
DICPCG:  Solving for p, Initial residual = 0.000670168, Final residual = 3.70194e-05, No Iterations 3
time step continuity errors : sum local = 3.53312e-08, global = 2.32099e-09, cumulative = -5.38438e-08
DICPCG:  Solving for p, Initial residual = 0.000536096, Final residual = 3.24428e-05, No Iterations 22
DICPCG:  Solving for p, Initial residual = 3.22453e-05, Final residual = 2.33685e-06, No Iterations 3
time step continuity errors : sum local = 2.24218e-09, global = -2.39207e-10, cumulative = -5.4083e-08
DICPCG:  Solving for p, Initial residual = 1.1131e-05, Final residual = 1.0931e-06, No Iterations 8
DICPCG:  Solving for p, Initial residual = 1.09308e-06, Final residual = 6.01503e-07, No Iterations 1
time step continuity errors : sum local = 5.77137e-10, global = -2.54649e-10, cumulative = -5.43377e-08
DICPCG:  Solving for p, Initial residual = 9.18398e-07, Final residual = 9.18398e-07, No Iterations 0
DICPCG:  Solving for p, Initial residual = 9.18398e-07, Final residual = 9.18398e-07, No Iterations 0
time step continuity errors : sum local = 8.81195e-10, global = -2.56617e-10, cumulative = -5.45943e-08
ExecutionTime = 0.26 s  ClockTime = 0 s

Time = 0.0022

Courant Number mean: 0.00200497 max: 0.00241696

 Coupling...
Starting up LIGGGHTS
Executing command: 'run 100    '
Setting up run at Wed Mar 15 13:22:19 2023

Memory usage per processor = 6.7727 Mbytes
    Step    Atoms 
  352100      167 
  352200      167 
Loop time of 0.00571442 on 4 procs for 100 steps with 167 atoms, finish time Wed Mar 15 13:22:19 2023


Pair  time (%) = 0.00174119 (30.4701)
Neigh time (%) = 0 (0)
Comm  time (%) = 0.000469949 (8.22391)
Outpt time (%) = 3.0677e-05 (0.536835)
Other time (%) = 0.0034726 (60.7691)

Nlocal:    41.75 ave 96 max 0 min
Histogram: 2 0 0 0 0 0 0 1 0 1
Nghost:    179.5 ave 364 max 0 min
Histogram: 2 0 0 0 0 0 0 0 0 2
Neighs:    1045.75 ave 2376 max 0 min
Histogram: 2 0 0 0 0 0 0 1 0 1

Total # of neighbors = 4183
Ave neighs/atom = 25.0479
Neighbor list builds = 0
Dangerous builds = 0
Executing command: 'write_restart ../DEM/liggghts.restartCFDEM'
System init for write_restart ...
LIGGGHTS finished

 timeStepFraction() = 1
[3] cellI = 81
[3] index = 1
[3] Us = (-1.88101e-05 1.99093e-05 -2.26874e-05)
[0] cellI = 81
[0] index = 0
[0] Us = (-7.51982e-06 5.3435e-06 -5.60279e-05)
[3] Ur = (-1.09589e-05 -0.000176764 -0.00194174)
[3] dprim = 0.0002
[0] Ur = (8.76241e-05 -3.62062e-05 -0.00160523)
[0] dprim = 0.0002
[0] phi = 1
[0] rho = 1000
[3] phi = 1
[3] rho = 1000
[3] nuf = 1e-06
[3] voidfraction = 0.421805
[0] nuf = 1e-06
[0] voidfraction = 0.428542
[0] Rep = 0
[0] betaP = 5.01468e+06
[0] drag = (1.84058e-09 -7.60527e-10 -3.37185e-08)
[3] Rep = 0
[3] betaP = 5.15742e+06
[3] drag = (-2.36749e-10 -3.81869e-09 -4.1948e-08)

Solver level total Eulerian momentum exchange:
  TotalForceImp:  (-2.05706e-07 -2.79047e-07 7.69803e-06)
  Warning, these values are based on latest Ksl and Us but prev. iteration U!

DILUPBiCG:  Solving for Ux, Initial residual = 0.14983, Final residual = 1.41386e-05, No Iterations 1
DILUPBiCG:  Solving for Uy, Initial residual = 0.0912086, Final residual = 1.29777e-05, No Iterations 1
DILUPBiCG:  Solving for Uz, Initial residual = 0.0160203, Final residual = 5.45568e-06, No Iterations 1
DICPCG:  Solving for p, Initial residual = 0.023195, Final residual = 0.00196261, No Iterations 11
[...]
    Step    Atoms 
  359400      167 
  359500      167 
Loop time of 0.00573936 on 4 procs for 100 steps with 167 atoms, finish time Wed Mar 15 13:22:20 2023


Pair  time (%) = 0.00175533 (30.584)
Neigh time (%) = 0 (0)
Comm  time (%) = 0.000475514 (8.28515)
Outpt time (%) = 3.01447e-05 (0.525229)
Other time (%) = 0.00347837 (60.6056)

Nlocal:    41.75 ave 96 max 0 min
Histogram: 2 0 0 0 0 0 0 1 0 1
Nghost:    179.5 ave 364 max 0 min
Histogram: 2 0 0 0 0 0 0 0 0 2
Neighs:    1045.75 ave 2376 max 0 min
Histogram: 2 0 0 0 0 0 0 1 0 1

Total # of neighbors = 4183
Ave neighs/atom = 25.0479
Neighbor list builds = 0
Dangerous builds = 0
Executing command: 'write_restart ../DEM/liggghts.restartCFDEM'
System init for write_restart ...
LIGGGHTS finished

 timeStepFraction() = 1
[3] cellI = 81
[3] index = 1
[0] cellI = 81
[0] index = 0
[0] Us = (4.251e-05 5.77746e-05 -0.000115575)
[3] Us = (-5.75584e-05 -2.7053e-05 -6.93161e-05)
[3] Ur = (4.62346e-05 -0.000105747 -0.00206104)
[3] dprim = 0.0002
[3] phi = 1
[0] Ur = (9.61095e-05 -7.0395e-05 -0.0018293)
[0] dprim = 0.0002
[0] phi = 1
[0] rho = 1000
[0] nuf = 1e-06
[3] rho = 1000
[3] nuf = 1e-06
[3] voidfraction = 0.421833
[3] Rep = 0
[0] voidfraction = 0.428647
[0] Rep = 0
[0] betaP = 5.01451e+06
[3] betaP = 5.15783e+06
[3] drag = (9.98903e-10 -2.28468e-09 -4.45288e-08)
[0] drag = (2.01875e-09 -1.47863e-09 -3.84239e-08)

Solver level total Eulerian momentum exchange:
  TotalForceImp:  (1.63752e-07 7.12435e-09 6.7852e-06)
  Warning, these values are based on latest Ksl and Us but prev. iteration U!

DILUPBiCG:  Solving for Ux, Initial residual = 0.152167, Final residual = 4.38832e-05, No Iterations 1
DILUPBiCG:  Solving for Uy, Initial residual = 0.149003, Final residual = 3.39011e-05, No Iterations 1
DILUPBiCG:  Solving for Uz, Initial residual = 0.0488094, Final residual = 1.57431e-05, No Iterations 1
DICPCG:  Solving for p, Initial residual = 0.0166697, Final residual = 0.0015086, No Iterations 22
DICPCG:  Solving for p, Initial residual = 0.00224969, Final residual = 0.000210238, No Iterations 3
time step continuity errors : sum local = 1.95945e-07, global = 2.07674e-08, cumulative = -1.83078e-08
DICPCG:  Solving for p, Initial residual = 0.00106024, Final residual = 8.46969e-05, No Iterations 10
DICPCG:  Solving for p, Initial residual = 8.47925e-05, Final residual = 5.31023e-06, No Iterations 17
time step continuity errors : sum local = 4.93168e-09, global = 1.47107e-10, cumulative = -1.81606e-08
DICPCG:  Solving for p, Initial residual = 2.51527e-05, Final residual = 2.31837e-06, No Iterations 5
DICPCG:  Solving for p, Initial residual = 2.31835e-06, Final residual = 8.03823e-07, No Iterations 19
time step continuity errors : sum local = 7.52019e-10, global = 6.91194e-11, cumulative = -1.80915e-08
DICPCG:  Solving for p, Initial residual = 1.19082e-06, Final residual = 4.46115e-07, No Iterations 1
DICPCG:  Solving for p, Initial residual = 4.46115e-07, Final residual = 4.46115e-07, No Iterations 0
time step continuity errors : sum local = 4.17461e-10, global = 5.39584e-11, cumulative = -1.80376e-08
ExecutionTime = 1.06 s  ClockTime = 1 s

Time = 0.0096

Courant Number mean: 0.00200557 max: 0.00252419

 Coupling...
Starting up LIGGGHTS
Executing command: 'run 100    '
Setting up run at Wed Mar 15 13:22:20 2023

Memory usage per processor = 6.7727 Mbytes
    Step    Atoms 
  359500      167 
  359600      167 
Loop time of 0.00569188 on 4 procs for 100 steps with 167 atoms, finish time Wed Mar 15 13:22:20 2023


Pair  time (%) = 0.00174008 (30.5712)
Neigh time (%) = 0 (0)
Comm  time (%) = 0.000479668 (8.42723)
Outpt time (%) = 2.9545e-05 (0.519073)
Other time (%) = 0.00344259 (60.4825)

Nlocal:    41.75 ave 96 max 0 min
Histogram: 2 0 0 0 0 0 0 1 0 1
Nghost:    179.5 ave 364 max 0 min
Histogram: 2 0 0 0 0 0 0 0 0 2
Neighs:    1045.75 ave 2376 max 0 min
Histogram: 2 0 0 0 0 0 0 1 0 1

Total # of neighbors = 4183
Ave neighs/atom = 25.0479
Neighbor list builds = 0
Dangerous builds = 0
Executing command: 'write_restart ../DEM/liggghts.restartCFDEM'
System init for write_restart ...
LIGGGHTS finished

 timeStepFraction() = 1
[3] cellI = 81
[3] index = 1
[3] Us = (1.04189e-05 4.61566e-05 6.56561e-06)
[3] Ur = (-4.22936e-05 -0.000196666 -0.00203742)
[3] dprim = 0.0002
[3] phi = 1
[3] rho = 1000
[3] nuf = 1e-06
[3] voidfraction = 0.4218
[3] Rep = 0
[3] betaP = 5.15838e+06
[3] drag = (-9.13854e-10 -4.24945e-09 -4.40233e-08)
[0] cellI = 81
[0] index = 0
[0] Us = (4.02638e-05 -4.23888e-07 -5.92181e-05)
[0] Ur = (7.40802e-05 -1.68276e-05 -0.00167162)
[0] dprim = 0.0002
[0] phi = 1
[0] rho = 1000
[0] nuf = 1e-06
[0] voidfraction = 0.428535
[0] Rep = 0
[0] betaP = 5.01539e+06
[0] drag = (1.55631e-09 -3.53521e-10 -3.5118e-08)

Solver level total Eulerian momentum exchange:
  TotalForceImp:  (3.08659e-07 -2.76225e-07 7.5594e-06)
  Warning, these values are based on latest Ksl and Us but prev. iteration U!

DILUPBiCG:  Solving for Ux, Initial residual = 0.135732, Final residual = 2.56499e-05, No Iterations 1
DILUPBiCG:  Solving for Uy, Initial residual = 0.111489, Final residual = 1.42624e-05, No Iterations 1
DILUPBiCG:  Solving for Uz, Initial residual = 0.0367269, Final residual = 1.24751e-05, No Iterations 1
DICPCG:  Solving for p, Initial residual = 0.0204493, Final residual = 0.00146372, No Iterations 3
DICPCG:  Solving for p, Initial residual = 0.00145623, Final residual = 0.000119138, No Iterations 9
time step continuity errors : sum local = 1.10728e-07, global = -4.07397e-08, cumulative = -5.87773e-08
DICPCG:  Solving for p, Initial residual = 0.000749723, Final residual = 7.22278e-05, No Iterations 6
DICPCG:  Solving for p, Initial residual = 7.2205e-05, Final residual = 6.48709e-06, No Iterations 19
time step continuity errors : sum local = 6.04052e-09, global = 1.7536e-10, cumulative = -5.86019e-08
DICPCG:  Solving for p, Initial residual = 1.83588e-05, Final residual = 1.81861e-06, No Iterations 21
DICPCG:  Solving for p, Initial residual = 1.81944e-06, Final residual = 6.65264e-07, No Iterations 1
time step continuity errors : sum local = 6.23947e-10, global = -8.79664e-11, cumulative = -5.86899e-08
DICPCG:  Solving for p, Initial residual = 1.036e-06, Final residual = 4.32064e-07, No Iterations 1
DICPCG:  Solving for p, Initial residual = 4.32064e-07, Final residual = 4.32064e-07, No Iterations 0
time step continuity errors : sum local = 4.0523e-10, global = -5.73668e-11, cumulative = -5.87473e-08
ExecutionTime = 1.07 s  ClockTime = 1 s

Time = 0.0097

Courant Number mean: 0.00200478 max: 0.00242421

 Coupling...
Starting up LIGGGHTS
Executing command: 'run 100    '
Setting up run at Wed Mar 15 13:22:20 2023

Memory usage per processor = 6.7727 Mbytes
    Step    Atoms 
  359600      167 
  359700      167 
Loop time of 0.00574681 on 4 procs for 100 steps with 167 atoms, finish time Wed Mar 15 13:22:20 2023


Pair  time (%) = 0.00175862 (30.6018)
Neigh time (%) = 0 (0)
Comm  time (%) = 0.000482642 (8.39844)
Outpt time (%) = 3.08633e-05 (0.537051)
Other time (%) = 0.00347468 (60.4627)

Nlocal:    41.75 ave 96 max 0 min
Histogram: 2 0 0 0 0 0 0 1 0 1
Nghost:    179.5 ave 364 max 0 min
Histogram: 2 0 0 0 0 0 0 0 0 2
Neighs:    1045.75 ave 2376 max 0 min
Histogram: 2 0 0 0 0 0 0 1 0 1

Total # of neighbors = 4183
Ave neighs/atom = 25.0479
Neighbor list builds = 0
Dangerous builds = 0
Executing command: 'write_restart ../DEM/liggghts.restartCFDEM'
System init for write_restart ...
LIGGGHTS finished

 timeStepFraction() = 1
[3] cellI = 81
[3] index = 1
[0] cellI = 81
[0] index = 0
[0] Us = (-2.56447e-05 -3.32799e-05 4.3209e-05)
[3] Us = (7.21975e-05 4.9291e-05 2.65311e-05)
[3] Ur = (-9.35786e-05 -0.000181219 -0.00202902)
[3] dprim = 0.0002
[0] Ur = (0.000117177 1.67536e-05 -0.00173117)
[0] dprim = 0.0002
[0] phi = 1
[0] rho = 1000
[0] nuf = 1e-06
[3] phi = 1
[3] rho = 1000
[3] nuf = 1e-06
[3] voidfraction = 0.421872
[3] Rep = 0
[0] voidfraction = 0.428577
[0] Rep = 0
[0] betaP = 5.01507e+06
[0] drag = (2.46155e-09 3.51943e-10 -3.63669e-08)
[3] betaP = 5.1568e+06
[3] drag = (-2.02137e-09 -3.91448e-09 -4.38284e-08)

Solver level total Eulerian momentum exchange:
  TotalForceImp:  (-1.40322e-08 -3.99354e-07 8.79062e-06)
  Warning, these values are based on latest Ksl and Us but prev. iteration U!

DILUPBiCG:  Solving for Ux, Initial residual = 0.13466, Final residual = 3.52404e-05, No Iterations 1
DILUPBiCG:  Solving for Uy, Initial residual = 0.151099, Final residual = 2.94014e-05, No Iterations 1
DILUPBiCG:  Solving for Uz, Initial residual = 0.0278193, Final residual = 8.08431e-06, No Iterations 1
DICPCG:  Solving for p, Initial residual = 0.0130615, Final residual = 0.000975067, No Iterations 22
DICPCG:  Solving for p, Initial residual = 0.000784701, Final residual = 4.86254e-05, No Iterations 3
time step continuity errors : sum local = 5.69758e-08, global = -2.02974e-09, cumulative = -6.0777e-08
DICPCG:  Solving for p, Initial residual = 0.000298223, Final residual = 2.88204e-05, No Iterations 11
DICPCG:  Solving for p, Initial residual = 2.88121e-05, Final residual = 9.14879e-07, No Iterations 22
time step continuity errors : sum local = 1.07207e-09, global = -5.01135e-11, cumulative = -6.08271e-08
DICPCG:  Solving for p, Initial residual = 7.50751e-06, Final residual = 7.34787e-07, No Iterations 3
DICPCG:  Solving for p, Initial residual = 7.34788e-07, Final residual = 7.34788e-07, No Iterations 0
time step continuity errors : sum local = 8.57991e-10, global = 1.53769e-10, cumulative = -6.06734e-08
DICPCG:  Solving for p, Initial residual = 8.05429e-07, Final residual = 8.05429e-07, No Iterations 0
DICPCG:  Solving for p, Initial residual = 8.05429e-07, Final residual = 8.05429e-07, No Iterations 0
time step continuity errors : sum local = 9.40477e-10, global = 1.62603e-10, cumulative = -6.05108e-08
ExecutionTime = 1.09 s  ClockTime = 1 s

Time = 0.0098

Courant Number mean: 0.00200494 max: 0.00243834

 Coupling...
Starting up LIGGGHTS
Executing command: 'run 100    '
Setting up run at Wed Mar 15 13:22:20 2023

Memory usage per processor = 6.7727 Mbytes
    Step    Atoms 
  359700      167 
  359800      167 
Loop time of 0.00576311 on 4 procs for 100 steps with 167 atoms, finish time Wed Mar 15 13:22:20 2023


Pair  time (%) = 0.00175632 (30.4753)
Neigh time (%) = 0 (0)
Comm  time (%) = 0.000480864 (8.34382)
Outpt time (%) = 3.06075e-05 (0.531093)
Other time (%) = 0.00349532 (60.6498)

Nlocal:    41.75 ave 96 max 0 min
Histogram: 2 0 0 0 0 0 0 1 0 1
Nghost:    179.5 ave 364 max 0 min
Histogram: 2 0 0 0 0 0 0 0 0 2
Neighs:    1045.75 ave 2376 max 0 min
Histogram: 2 0 0 0 0 0 0 1 0 1

Total # of neighbors = 4183
Ave neighs/atom = 25.0479
Neighbor list builds = 0
Dangerous builds = 0
Executing command: 'write_restart ../DEM/liggghts.restartCFDEM'
System init for write_restart ...
LIGGGHTS finished

 timeStepFraction() = 1
[0] cellI = 81
[0] index = 0
[0] Us = (-5.61172e-05 -1.83489e-05 1.86156e-05)
[3] cellI = 81
[3] index = 1
[3] Us = (-2.7861e-05 -5.28942e-05 -3.97075e-05)
[3] Ur = (1.31989e-05 -6.59806e-05 -0.00200562)
[3] dprim = 0.0002
[0] Ur = (0.000127631 -1.51842e-06 -0.00174241)
[0] dprim = 0.0002
[0] phi = 1
[0] rho = 1000
[0] nuf = 1e-06
[0] voidfraction = 0.428578
[0] Rep = 0
[0] betaP = 5.01515e+06
[3] phi = 1
[3] rho = 1000
[3] nuf = 1e-06
[3] voidfraction = 0.421807
[0] drag = (2.68119e-09 -3.18981e-11 -3.66035e-08)
[3] Rep = 0
[3] betaP = 5.15789e+06
[3] drag = (2.85167e-10 -1.42553e-09 -4.33321e-08)

Solver level total Eulerian momentum exchange:
  TotalForceImp:  (-3.3793e-08 -4.19023e-07 8.54146e-06)
  Warning, these values are based on latest Ksl and Us but prev. iteration U!

DILUPBiCG:  Solving for Ux, Initial residual = 0.122252, Final residual = 2.01286e-05, No Iterations 1
DILUPBiCG:  Solving for Uy, Initial residual = 0.117302, Final residual = 1.68826e-05, No Iterations 1
DILUPBiCG:  Solving for Uz, Initial residual = 0.0184552, Final residual = 5.88838e-06, No Iterations 1
DICPCG:  Solving for p, Initial residual = 0.00738065, Final residual = 0.000600249, No Iterations 3
DICPCG:  Solving for p, Initial residual = 0.000603103, Final residual = 2.49511e-05, No Iterations 23
time step continuity errors : sum local = 2.90413e-08, global = 7.45895e-10, cumulative = -5.97649e-08
DICPCG:  Solving for p, Initial residual = 0.000278855, Final residual = 2.17811e-05, No Iterations 3
DICPCG:  Solving for p, Initial residual = 2.17786e-05, Final residual = 1.52751e-06, No Iterations 22
time step continuity errors : sum local = 1.74694e-09, global = -6.46023e-12, cumulative = -5.97713e-08
DICPCG:  Solving for p, Initial residual = 5.58229e-06, Final residual = 7.78959e-07, No Iterations 2
DICPCG:  Solving for p, Initial residual = 7.78959e-07, Final residual = 7.78959e-07, No Iterations 0
time step continuity errors : sum local = 8.90058e-10, global = 1.46556e-11, cumulative = -5.97567e-08
DICPCG:  Solving for p, Initial residual = 8.57404e-07, Final residual = 8.57404e-07, No Iterations 0
DICPCG:  Solving for p, Initial residual = 8.57404e-07, Final residual = 8.57404e-07, No Iterations 0
time step continuity errors : sum local = 9.79692e-10, global = 1.47812e-11, cumulative = -5.97419e-08
ExecutionTime = 1.1 s  ClockTime = 1 s

Time = 0.0099

Courant Number mean: 0.00200516 max: 0.00249123

 Coupling...
Starting up LIGGGHTS
Executing command: 'run 100    '
Setting up run at Wed Mar 15 13:22:20 2023

Memory usage per processor = 6.7727 Mbytes
    Step    Atoms 
  359800      167 
  359900      167 
Loop time of 0.00572679 on 4 procs for 100 steps with 167 atoms, finish time Wed Mar 15 13:22:20 2023


Pair  time (%) = 0.00175334 (30.6164)
Neigh time (%) = 0 (0)
Comm  time (%) = 0.000480096 (8.38334)
Outpt time (%) = 2.97223e-05 (0.519004)
Other time (%) = 0.00346363 (60.4812)

Nlocal:    41.75 ave 96 max 0 min
Histogram: 2 0 0 0 0 0 0 1 0 1
Nghost:    179.5 ave 364 max 0 min
Histogram: 2 0 0 0 0 0 0 0 0 2
Neighs:    1045.75 ave 2376 max 0 min
Histogram: 2 0 0 0 0 0 0 1 0 1

Total # of neighbors = 4183
Ave neighs/atom = 25.0479
Neighbor list builds = 0
Dangerous builds = 0
Executing command: 'write_restart ../DEM/liggghts.restartCFDEM'
System init for write_restart ...
LIGGGHTS finished

 timeStepFraction() = 1
[3] cellI = 81
[3] index = 1
[0] cellI = 81
[0] index = 0
[0] Us = (8.06153e-06 2.39408e-05 -6.26418e-06)
[0] Ur = (6.43951e-05 -4.43137e-05 -0.00165507)
[0] dprim = 0.0002
[0] phi = 1
[0] rho = 1000
[3] Us = (-7.97028e-05 -6.12048e-05 2.22054e-05)
[3] Ur = (6.01393e-05 -6.04227e-05 -0.00199631)
[0] nuf = 1e-06
[0] voidfraction = 0.428597
[0] Rep = 0
[0] betaP = 5.01397e+06
[3] dprim = 0.0002
[3] phi = 1
[3] rho = 1000
[3] nuf = 1e-06
[3] voidfraction = 0.421819
[3] Rep = 0
[3] betaP = 5.15755e+06
[0] drag = (1.35246e-09 -9.30697e-10 -3.47605e-08)
[3] drag = (1.29924e-09 -1.30537e-09 -4.3128e-08)

Solver level total Eulerian momentum exchange:
  TotalForceImp:  (-2.17315e-07 3.60648e-08 8.57327e-06)
  Warning, these values are based on latest Ksl and Us but prev. iteration U!

DILUPBiCG:  Solving for Ux, Initial residual = 0.13348, Final residual = 1.58017e-05, No Iterations 1
DILUPBiCG:  Solving for Uy, Initial residual = 0.129821, Final residual = 1.33006e-05, No Iterations 1
DILUPBiCG:  Solving for Uz, Initial residual = 0.0128373, Final residual = 4.20027e-06, No Iterations 1
DICPCG:  Solving for p, Initial residual = 0.0062589, Final residual = 0.000572014, No Iterations 4
DICPCG:  Solving for p, Initial residual = 0.000569385, Final residual = 2.8141e-05, No Iterations 22
time step continuity errors : sum local = 3.22697e-08, global = 1.63955e-10, cumulative = -5.95779e-08
DICPCG:  Solving for p, Initial residual = 0.000238114, Final residual = 2.16791e-05, No Iterations 3
DICPCG:  Solving for p, Initial residual = 2.16822e-05, Final residual = 8.10259e-07, No Iterations 22
time step continuity errors : sum local = 8.92977e-10, global = 2.50409e-11, cumulative = -5.95529e-08
DICPCG:  Solving for p, Initial residual = 5.07526e-06, Final residual = 7.70237e-07, No Iterations 2
DICPCG:  Solving for p, Initial residual = 7.70238e-07, Final residual = 7.70238e-07, No Iterations 0
time step continuity errors : sum local = 8.49797e-10, global = -4.52976e-11, cumulative = -5.95982e-08
DICPCG:  Solving for p, Initial residual = 8.38471e-07, Final residual = 8.38471e-07, No Iterations 0
DICPCG:  Solving for p, Initial residual = 8.38471e-07, Final residual = 8.38471e-07, No Iterations 0
time step continuity errors : sum local = 9.25078e-10, global = -4.85568e-11, cumulative = -5.96467e-08
ExecutionTime = 1.11 s  ClockTime = 1 s

Time = 0.01

Courant Number mean: 0.00200501 max: 0.0024365

 Coupling...
Starting up LIGGGHTS
Executing command: 'run 100    '
Setting up run at Wed Mar 15 13:22:20 2023

Memory usage per processor = 6.7727 Mbytes
    Step    Atoms 
  359900      167 
  360000      167 
Loop time of 0.00724724 on 4 procs for 100 steps with 167 atoms, finish time Wed Mar 15 13:22:20 2023


Pair  time (%) = 0.00178868 (24.6808)
Neigh time (%) = 0 (0)
Comm  time (%) = 0.000486266 (6.70966)
Outpt time (%) = 0.00139223 (19.2105)
Other time (%) = 0.00358007 (49.3991)

Nlocal:    41.75 ave 96 max 0 min
Histogram: 2 0 0 0 0 0 0 1 0 1
Nghost:    179.5 ave 364 max 0 min
Histogram: 2 0 0 0 0 0 0 0 0 2
Neighs:    1045.75 ave 2376 max 0 min
Histogram: 2 0 0 0 0 0 0 1 0 1

Total # of neighbors = 4183
Ave neighs/atom = 25.0479
Neighbor list builds = 0
Dangerous builds = 0
Executing command: 'write_restart ../DEM/liggghts.restartCFDEM'
System init for write_restart ...
LIGGGHTS finished

 timeStepFraction() = 1
[0] cellI = 81
[0] index = 0
[0] Us = (6.04036e-05 1.00889e-05 -1.70401e-05)
[3] cellI = 81
[3] index = 1
[0] Ur = (1.63419e-05 -3.09517e-05 -0.00166856)
[0] dprim = 0.0002
[0] phi = 1
[3] Us = (5.10818e-05 6.15534e-05 -2.659e-06)
[3] Ur = (-7.64762e-05 -0.000187952 -0.00199897)
[3] dprim = 0.0002
[0] rho = 1000
[0] nuf = 1e-06
[0] voidfraction = 0.428596
[0] Rep = 0
[0] betaP = 5.0141e+06
[0] drag = (3.4323e-10 -6.5008e-10 -3.50449e-08)
[3] phi = 1
[3] rho = 1000
[3] nuf = 1e-06
[3] voidfraction = 0.421848
[3] Rep = 0
[3] betaP = 5.15705e+06
[3] drag = (-1.65202e-09 -4.06009e-09 -4.31814e-08)

Solver level total Eulerian momentum exchange:
  TotalForceImp:  (4.75423e-07 3.4893e-08 8.01958e-06)
  Warning, these values are based on latest Ksl and Us but prev. iteration U!

DILUPBiCG:  Solving for Ux, Initial residual = 0.136793, Final residual = 8.99625e-06, No Iterations 1
DILUPBiCG:  Solving for Uy, Initial residual = 0.159797, Final residual = 1.10482e-05, No Iterations 1
DILUPBiCG:  Solving for Uz, Initial residual = 0.00487673, Final residual = 1.56819e-06, No Iterations 1
DICPCG:  Solving for p, Initial residual = 0.00508482, Final residual = 0.000432542, No Iterations 2
DICPCG:  Solving for p, Initial residual = 0.000432747, Final residual = 1.3747e-05, No Iterations 23
time step continuity errors : sum local = 1.51322e-08, global = -3.94014e-10, cumulative = -6.00408e-08
DICPCG:  Solving for p, Initial residual = 0.000163339, Final residual = 1.45981e-05, No Iterations 3
DICPCG:  Solving for p, Initial residual = 1.45991e-05, Final residual = 1.402e-06, No Iterations 20
time step continuity errors : sum local = 1.49021e-09, global = -3.14139e-11, cumulative = -6.00722e-08
DICPCG:  Solving for p, Initial residual = 2.87152e-06, Final residual = 7.93163e-07, No Iterations 1
DICPCG:  Solving for p, Initial residual = 7.93163e-07, Final residual = 7.93163e-07, No Iterations 0
time step continuity errors : sum local = 8.44028e-10, global = 5.35126e-12, cumulative = -6.00668e-08
DICPCG:  Solving for p, Initial residual = 7.71043e-07, Final residual = 7.71043e-07, No Iterations 0
DICPCG:  Solving for p, Initial residual = 7.71043e-07, Final residual = 7.71043e-07, No Iterations 0
time step continuity errors : sum local = 8.20489e-10, global = 7.20274e-12, cumulative = -6.00596e-08
ExecutionTime = 1.12 s  ClockTime = 1 s

End

Finalising parallel run
