
//   CFDEM_run   //

/home/pse/Filtration_Simulator/examples/uniform/CFDEM1/CFD

/*---------------------------------------------------------------------------*\
| =========                 |                                                 |
| \\      /  F ield         | OpenFOAM: The Open Source CFD Toolbox           |
|  \\    /   O peration     | Version:  5.x                                   |
|   \\  /    A nd           | Web:      www.OpenFOAM.org                      |
|    \\/     M anipulation  |                                                 |
\*---------------------------------------------------------------------------*/
Build  : 5.x-7f7d351b741b
Exec   : cfdemSolverPiso -parallel
Date   : Mar 14 2023
Time   : 14:31:33
Host   : "CFDEM1"
PID    : 147610
I/O    : uncollated
Case   : /home/pse/Filtration_Simulator/examples/uniform/CFDEM1/CFD
nProcs : 4
Slaves : 
3
(
"CFDEM1.147611"
"CFDEM1.147612"
"CFDEM1.147613"
)

Pstream initialized with:
    floatTransfer      : 0
    nProcsSimpleSum    : 0
    commsType          : nonBlocking
    polling iterations : 0
sigFpe : Enabling floating point exception trapping (FOAM_SIGFPE).
fileModificationChecking : Monitoring run-time modified files using timeStampMaster (fileModificationSkew 10)
allowSystemOperations : Allowing user-supplied system call operations

// * * * * * * * * * * * * * * * * * * * * * * * * * * * * * * * * * * * * * //
Create time

Overriding DimensionedConstants according to controlDict
    c [0 1 -1 0 0 0 0] 2.99792e+08
    G [-1 3 -2 0 0 0 0] 6.67429e-20
    h [1 2 -1 0 0 0 0] 6.62607e-13
    e [0 0 1 0 0 1 0] 1.60218e-07
    me [1 0 0 0 0 0 0] 9.10938e-19
    mp [1 0 0 0 0 0 0] 1.67262e-15
    mu [1 0 0 0 0 0 0] 1.66054e-15
    NA [0 0 0 0 -1 0 0] 6.02214e+23
    k [1 2 -2 -1 0 0 0] 1.38065e-08
    Pstd [1 -1 -2 0 0 0 0] 100
    Tstd [0 0 0 1 0 0 0] 298.15
    hr [1 2 -1 0 0 0 0] 1.05457e-13
    mu0 [1 1 -2 0 0 -2 0] 1.25664e-06
    epsilon0 [-1 -3 4 0 0 2 0] 8.85421e-12
    Z0 [1 2 -3 0 0 -2 0] 376.73
    kappa [1 3 -4 0 0 -2 0] 8.98752e+09
    G0 [-1 -2 3 0 0 2 0] 0.0774812
    KJ [-1 -2 2 0 0 1 0] 483599
    phi0 [1 2 -2 0 0 -1 0] 2.06783e-06
    RK [1 2 -3 0 0 -2 0] 25.8127
    alpha [0 0 0 0 0 0 0] 7.29737
    Rinf [0 -1 0 0 0 0 0] 10973.8
    a0 [0 1 0 0 0 0 0] 5.29177e-05
    re [0 1 0 0 0 0 0] 0.00281795
    Eh [1 2 -2 0 0 0 0] 4.35975
    R [1 2 -2 -1 -1 0 0] 8.31447e+15
    F [0 0 1 0 -1 1 0] 9.64856e+16
    sigma [1 0 -3 -4 0 0 0] 5.67041e-11
    b [0 1 0 1 0 0 0] 2897.77
    c1 [1 4 -3 0 0 0 0] 374176
    c2 [0 1 0 1 0 0 0] 14387.7
Create mesh for time = 0


PISO: Operating solver in PISO mode

Reading field p

Reading physical velocity field U
Note: only if voidfraction at boundary is 1, U is superficial velocity!!!


Reading momentum exchange field Ksl


Reading voidfraction field voidfraction = (Vgas/Vparticle)


Creating density field rho

Reading particle velocity field Us

Reading/calculating face flux field phi

Generating interstitial face flux field phiByVoidfraction

Selecting incompressible transport model Newtonian
Selecting turbulence model type laminar
Selecting laminar stress model Stokes
No finite volume options present


Reading g
Selecting locateModel engine
Selecting dataExchangeModel twoWayMPI
Starting up LIGGGHTS for first time execution
Executing input script '../DEM/liggghts_run.txt'
LIGGGHTS (Version LIGGGHTS-PUBLIC 3.8.0, compiled 2022-08-09-18:54:32 by pse, git commit 86544c3f1215bc9744d7929e3eacf53ba086af9e)
version 3 8
Reading restart file ...
WARNING: Restart file version does not match LIGGGHTS version (../read_restart.cpp:507)
   --> restart file = Version LIGGGHTS-PUBLIC 3.8.0, compiled 2022-08-09-18:52:33 by pse, git commit 86544c3f1215bc9744d7929e3eacf53ba086af9e
   --> LIGGGHTS = Version LIGGGHTS-PUBLIC 3.8.0, compiled 2022-08-09-18:54:32 by pse, git commit 86544c3f1215bc9744d7929e3eacf53ba086af9e
version 3 8
version 3 8
version 3 8
  orthogonal box = (-5 -5 -40) to (5 5 50)
  1 by 1 by 4 MPI processor grid
  1400 atoms
INFO: mesh file (../DEM/stl_file/box.stl) is required, but data will be taken from restart file (../fix_mesh.cpp:417)
Resetting global state of Fix cad Style mesh/surface from restart file info
INFO: mesh file (../DEM/stl_file/inlet.stl) is required, but data will be taken from restart file (../fix_mesh.cpp:417)
Resetting global state of Fix inface Style mesh/surface from restart file info
Resetting global state of Fix n_neighs_mesh_cad Style property/atom from restart file info
Resetting per-atom state of Fix n_neighs_mesh_cad Style property/atom from restart file info
Resetting global state of Fix tracker_cad Style contacthistory/mesh from restart file info
Resetting per-atom state of Fix tracker_cad Style contacthistory/mesh from restart file info
1400 atoms in group nve_group
couple_every as specified in LIGGGHTS is overriden by calling external program (../fix_cfd_coupling.cpp:114)
Resetting global state of Fix contacthistory Style contacthistory from restart file info
Resetting per-atom state of Fix contacthistory Style contacthistory from restart file info
Setting up run at Tue Mar 14 14:31:33 2023

Import and parallelization of mesh cad containing 2 triangle(s) successful
Import and parallelization of mesh inface containing 2 triangle(s) successful
Memory usage per processor = 7.06107 Mbytes
    Step    Atoms 
  350000     1400 
Loop time of 2.53775e-06 on 4 procs for 0 steps with 1400 atoms, finish time Tue Mar 14 14:31:33 2023


Pair  time (%) = 0 (0)
Neigh time (%) = 0 (0)
Comm  time (%) = 0 (0)
Outpt time (%) = 0 (0)
Other time (%) = 2.53775e-06 (100)

Nlocal:    350 ave 838 max 0 min
Histogram: 2 0 0 0 0 0 1 0 0 1
Nghost:    553 ave 1250 max 0 min
Histogram: 2 0 0 0 0 0 0 1 0 1
Neighs:    7752.5 ave 18422 max 0 min
Histogram: 2 0 0 0 0 0 1 0 0 1

Total # of neighbors = 31010
Ave neighs/atom = 22.15
Neighbor list builds = 0
Dangerous builds = 0
Selecting IOModel basicIO
Selecting probeModel off
Selecting voidFractionModel divided
Selecting averagingModel dense
Selecting clockModel off
start clock measurement at t >20
Selecting smoothingModel off
Selecting meshMotionModel noMeshMotion

CFDEMcoupling version: cfdem-3.8.1
, compatible to LIGGGHTS version: 3.8.0
, compatible to OF version and build: 5.x-commit-538044ac05c4672b37c7df607dca1116fa88df88

You are currently using:
OF version: 5.x
OF build: 5.x-7f7d351b741b
CFDEM build: 3.8.0-3-gb237264-dirty

cg is set to: 1
LIGGGHTS hosts 1 atom types.
If BC are important, please provide volScalarFields -imp/expParticleForces-
ignoring ddt(voidfraction)
Selecting momCoupleModel implicitCouple

implicit momentum exchange field calculate if alphaP larger than : 1
Selecting forceModel GidaspowDrag
 Selecting forceSubModel ImEx
 reading switches:
  looking for treatForceExplicit ...  not found in dict, using default. treatForceExplicit = false
  looking for implForceDEM ...  not found in dict, using default. implForceDEM = false
  looking for verbose ...  found in dict. verbose = true
  looking for interpolation ...  found in dict. interpolation = true
  looking for scalarViscosity ...  not found in dict, using default. scalarViscosity = false

--> FOAM Warning : Please make sure you use the new nomenclature for verbose force model settings, please have a look at the forceSubModel doc.
Selecting forceModel gradPForce
 Selecting forceSubModel ImEx
 reading switches:
  looking for treatForceExplicit ...  not found in dict, using default. treatForceExplicit = true
  looking for verbose ...  not found in dict, using default. verbose = false
  looking for interpolation ...  found in dict. interpolation = true

Selecting forceModel viscForce
 Selecting forceSubModel ImEx
 reading switches:
  looking for treatForceExplicit ...  not found in dict, using default. treatForceExplicit = true
  looking for verbose ...  not found in dict, using default. verbose = false
  looking for interpolation ...  found in dict. interpolation = true
  looking for scalarViscosity ...  not found in dict, using default. scalarViscosity = false

Selecting forceModel fieldStore
Creating field stored_U
Selecting liggghtsCommandModel runLiggghts ,provide dicts, numbered from 0 to n
Selecting liggghtsCommandModel writeLiggghts ,provide dicts, numbered from 0 to n
writeLiggghts: A restart file writeName_write_restart ../DEM/liggghts.restartCFDEM is written.
solving volume averaged Navier Stokes equations of type A
check if Archimedes lift is necessary (depends on pressure formulation)


Starting time loop

--> FOAM Warning : 
    From function void Foam::timeControl::read(const Foam::dictionary&)
    in file db/functionObjects/timeControl/timeControl.C at line 89
    Reading "/home/pse/Filtration_Simulator/examples/uniform/CFDEM1/CFD/system/controlDict.functions.probes" from line 125 to line 137
    Using deprecated 'outputControl'
    Please use 'writeControl' with 'writeInterval'
Time = 10

Courant Number mean: 0.01 max: 0.01

 Coupling...
Starting up LIGGGHTS
Executing command: 'run 1000    '
Setting up run at Tue Mar 14 14:31:33 2023

Memory usage per processor = 7.06107 Mbytes
    Step    Atoms 
  350000     1400 
  351000     1400 
Loop time of 0.370569 on 4 procs for 1000 steps with 1400 atoms, finish time Tue Mar 14 14:31:34 2023


Pair  time (%) = 0.139742 (37.7101)
Neigh time (%) = 0 (0)
Comm  time (%) = 0.0111245 (3.00201)
Outpt time (%) = 0.000170709 (0.0460666)
Other time (%) = 0.219532 (59.2418)

Nlocal:    350 ave 838 max 0 min
Histogram: 2 0 0 0 0 0 1 0 0 1
Nghost:    553 ave 1250 max 0 min
Histogram: 2 0 0 0 0 0 0 1 0 1
Neighs:    7752.5 ave 18422 max 0 min
Histogram: 2 0 0 0 0 0 1 0 0 1

Total # of neighbors = 31010
Ave neighs/atom = 22.15
Neighbor list builds = 0
Dangerous builds = 0
LIGGGHTS finished

 timeStepFraction() = 1
[3] cellI = 40
[3] index = 1
[3] Us = (4.66158e-07 3.06194e-07 -6.07262e-07)
[3] Ur = (-4.66158e-07 -3.06194e-07 -0.000999393)
[3] dprim = 1
[3] phi = 1
[3] rho = 1
[3] nuf = 0.001
[3] voidfraction = 0.538678
[3] Rep = 0
[3] betaP = 0.130208
[3] drag = (-3.17812e-08 -2.08754e-08 -6.81355e-05)
[0] cellI = 40
[0] index = 0
[0] Us = (1.48255e-07 -1.43809e-06 -2.28146e-08)
[0] Ur = (-1.48255e-07 1.43809e-06 -0.000999977)
[0] dprim = 1
[0] phi = 1
[0] rho = 1
[0] nuf = 0.001
[0] voidfraction = 0.560438
[0] Rep = 0
[0] betaP = 0.119398
[0] drag = (-9.26839e-09 8.99043e-08 -6.2515e-05)

Solver level total Eulerian momentum exchange:
  TotalForceImp:  (-0.000758804 -0.00258264 0.145703)
  Warning, these values are based on latest Ksl and Us but prev. iteration U!

DILUPBiCG:  Solving for Ux, Initial residual = 1, Final residual = 0.000225607, No Iterations 1
DILUPBiCG:  Solving for Uy, Initial residual = 1, Final residual = 0.000182407, No Iterations 1
DILUPBiCG:  Solving for Uz, Initial residual = 1, Final residual = 2.99212e-05, No Iterations 1
DICPCG:  Solving for p, Initial residual = 1, Final residual = 0.0359863, No Iterations 23
DICPCG:  Solving for p, Initial residual = 0.000339674, Final residual = 2.27749e-05, No Iterations 3
time step continuity errors : sum local = 4.97357e-07, global = -3.73939e-10, cumulative = -3.73939e-10
DICPCG:  Solving for p, Initial residual = 0.000141814, Final residual = 1.02925e-05, No Iterations 22
DICPCG:  Solving for p, Initial residual = 1.03459e-05, Final residual = 5.07248e-07, No Iterations 3
time step continuity errors : sum local = 1.10183e-08, global = 3.84842e-10, cumulative = 1.09032e-11
DICPCG:  Solving for p, Initial residual = 9.66729e-07, Final residual = 9.66729e-07, No Iterations 0
DICPCG:  Solving for p, Initial residual = 9.66729e-07, Final residual = 9.66729e-07, No Iterations 0
time step continuity errors : sum local = 2.09988e-08, global = 4.28041e-10, cumulative = 4.38945e-10
DICPCG:  Solving for p, Initial residual = 9.73705e-07, Final residual = 9.73705e-07, No Iterations 0
DICPCG:  Solving for p, Initial residual = 9.73705e-07, Final residual = 9.73705e-07, No Iterations 0
time step continuity errors : sum local = 2.11503e-08, global = 4.28327e-10, cumulative = 8.67272e-10
ExecutionTime = 0.41 s  ClockTime = 1 s

Time = 20

Courant Number mean: 0.0100107 max: 0.0109347

 Coupling...
Starting up LIGGGHTS
Executing command: 'run 1000    '
Setting up run at Tue Mar 14 14:31:34 2023

Memory usage per processor = 7.06107 Mbytes
    Step    Atoms 
  351000     1400 
  352000     1400 
Loop time of 0.314442 on 4 procs for 1000 steps with 1400 atoms, finish time Tue Mar 14 14:31:34 2023


Pair  time (%) = 0.117723 (37.4386)
Neigh time (%) = 0 (0)
Comm  time (%) = 0.0100934 (3.20994)
Outpt time (%) = 0.000180859 (0.0575176)
Other time (%) = 0.186445 (59.2939)

Nlocal:    350 ave 838 max 0 min
Histogram: 2 0 0 0 0 0 1 0 0 1
Nghost:    553.25 ave 1251 max 0 min
Histogram: 2 0 0 0 0 0 0 1 0 1
Neighs:    7754.75 ave 18430 max 0 min
Histogram: 2 0 0 0 0 0 1 0 0 1

Total # of neighbors = 31019
Ave neighs/atom = 22.1564
Neighbor list builds = 0
Dangerous builds = 0
LIGGGHTS finished

 timeStepFraction() = 1
[0] cellI = 40
[0] index = 0
[0] Us = (-0.000113736 4.6473e-05 1.02241e-05)
[0] Ur = (0.000114255 -5.72612e-05 -0.00173968)
[0] dprim = 1
[0] phi = 1
[0] rho = 1
[0] nuf = 0.001
[0] voidfraction = 0.560291
[0] Rep = 0
[0] betaP = 0.120771
[0] drag = (7.22496e-06 -3.62094e-06 -0.00011001)
[3] cellI = 40
[3] index = 1
[3] Us = (1.74777e-07 -5.34174e-06 -1.48161e-05)
[3] Ur = (1.89295e-06 9.55337e-06 -0.00166052)
[3] dprim = 1
[3] phi = 1
[3] rho = 1
[3] nuf = 0.001
[3] voidfraction = 0.538563
[3] Rep = 0
[3] betaP = 0.131425
[3] drag = (1.30261e-07 6.57404e-07 -0.000114267)

Solver level total Eulerian momentum exchange:
  TotalForceImp:  (0.00238429 -4.42608e-05 0.334355)
  Warning, these values are based on latest Ksl and Us but prev. iteration U!

DILUPBiCG:  Solving for Ux, Initial residual = 0.158267, Final residual = 4.98909e-05, No Iterations 1
DILUPBiCG:  Solving for Uy, Initial residual = 0.167741, Final residual = 5.34514e-05, No Iterations 1
DILUPBiCG:  Solving for Uz, Initial residual = 0.100637, Final residual = 1.7461e-05, No Iterations 1
DICPCG:  Solving for p, Initial residual = 0.0038707, Final residual = 0.000312216, No Iterations 22
DICPCG:  Solving for p, Initial residual = 0.000382316, Final residual = 2.27639e-05, No Iterations 3
time step continuity errors : sum local = 4.03547e-07, global = 9.66956e-09, cumulative = 1.05368e-08
DICPCG:  Solving for p, Initial residual = 7.42356e-05, Final residual = 1.70377e-06, No Iterations 22
DICPCG:  Solving for p, Initial residual = 1.70039e-06, Final residual = 5.10832e-07, No Iterations 1
time step continuity errors : sum local = 9.07045e-09, global = 2.48423e-10, cumulative = 1.07853e-08
DICPCG:  Solving for p, Initial residual = 7.03453e-07, Final residual = 7.03453e-07, No Iterations 0
DICPCG:  Solving for p, Initial residual = 7.03453e-07, Final residual = 7.03453e-07, No Iterations 0
time step continuity errors : sum local = 1.24907e-08, global = 1.94807e-12, cumulative = 1.07872e-08
DICPCG:  Solving for p, Initial residual = 7.07134e-07, Final residual = 7.07134e-07, No Iterations 0
DICPCG:  Solving for p, Initial residual = 7.07134e-07, Final residual = 7.07134e-07, No Iterations 0
time step continuity errors : sum local = 1.2556e-08, global = -2.61727e-12, cumulative = 1.07846e-08
ExecutionTime = 0.73 s  ClockTime = 1 s

Time = 30

Courant Number mean: 0.0100131 max: 0.0112556

 Coupling...
Starting up LIGGGHTS
Executing command: 'run 1000    '
Setting up run at Tue Mar 14 14:31:34 2023

Memory usage per processor = 7.06107 Mbytes
    Step    Atoms 
  352000     1400 
  353000     1400 
Loop time of 0.328149 on 4 procs for 1000 steps with 1400 atoms, finish time Tue Mar 14 14:31:34 2023


Pair  time (%) = 0.121915 (37.1523)
Neigh time (%) = 0 (0)
Comm  time (%) = 0.0100694 (3.06855)
Outpt time (%) = 0.000184094 (0.0561008)
Other time (%) = 0.195981 (59.7231)

Nlocal:    350 ave 838 max 0 min
Histogram: 2 0 0 0 0 0 1 0 0 1
Nghost:    553.75 ave 1251 max 0 min
Histogram: 2 0 0 0 0 0 0 1 0 1
Neighs:    7760 ave 18448 max 0 min
Histogram: 2 0 0 0 0 0 1 0 0 1

Total # of neighbors = 31040
Ave neighs/atom = 22.1714
Neighbor list builds = 0
Dangerous builds = 0
LIGGGHTS finished

 timeStepFraction() = 1
[0] cellI = 40
[0] index = 0
[0] Us = (-1.06277e-05 2.9535e-05 -6.48255e-06)
[0] Ur = (6.55167e-06 -4.47431e-05 -0.00172865)
[0] dprim = 1
[0] phi = 1
[0] rho = 1
[0] nuf = 0.001
[0] voidfraction = 0.559618
[0] Rep = 0
[0] betaP = 0.121066
[0] drag = (4.1531e-07 -2.83627e-06 -0.000109579)
[3] cellI = 40
[3] index = 1
[3] Us = (-2.79106e-05 -8.36831e-06 2.31637e-05)
[3] Ur = (2.78525e-05 1.19188e-05 -0.00164788)
[3] dprim = 1
[3] phi = 1
[3] rho = 1
[3] nuf = 0.001
[3] voidfraction = 0.53774
[3] Rep = 0
[3] betaP = 0.131829
[3] drag = (1.92254e-06 8.22704e-07 -0.000113746)

Solver level total Eulerian momentum exchange:
  TotalForceImp:  (-0.00319222 -0.00161874 0.396563)
  Warning, these values are based on latest Ksl and Us but prev. iteration U!

DILUPBiCG:  Solving for Ux, Initial residual = 0.310576, Final residual = 5.06854e-05, No Iterations 1
DILUPBiCG:  Solving for Uy, Initial residual = 0.253409, Final residual = 6.25279e-05, No Iterations 1
DILUPBiCG:  Solving for Uz, Initial residual = 0.0999724, Final residual = 1.10847e-05, No Iterations 1
DICPCG:  Solving for p, Initial residual = 0.00417641, Final residual = 0.000274281, No Iterations 23
DICPCG:  Solving for p, Initial residual = 0.000232886, Final residual = 1.19321e-05, No Iterations 3
time step continuity errors : sum local = 2.50193e-07, global = -1.06023e-08, cumulative = 1.82289e-10
DICPCG:  Solving for p, Initial residual = 4.37713e-05, Final residual = 2.06859e-06, No Iterations 23
DICPCG:  Solving for p, Initial residual = 2.07154e-06, Final residual = 7.06933e-07, No Iterations 1
time step continuity errors : sum local = 1.4799e-08, global = 4.97357e-10, cumulative = 6.79646e-10
DICPCG:  Solving for p, Initial residual = 7.16428e-07, Final residual = 7.16428e-07, No Iterations 0
DICPCG:  Solving for p, Initial residual = 7.16428e-07, Final residual = 7.16428e-07, No Iterations 0
time step continuity errors : sum local = 1.49978e-08, global = 6.89045e-10, cumulative = 1.36869e-09
DICPCG:  Solving for p, Initial residual = 7.15082e-07, Final residual = 7.15082e-07, No Iterations 0
DICPCG:  Solving for p, Initial residual = 7.15082e-07, Final residual = 7.15082e-07, No Iterations 0
time step continuity errors : sum local = 1.49696e-08, global = 6.92649e-10, cumulative = 2.06134e-09
ExecutionTime = 1.06 s  ClockTime = 1 s

Time = 40

Courant Number mean: 0.0100163 max: 0.0115859

 Coupling...
Starting up LIGGGHTS
Executing command: 'run 1000    '
Setting up run at Tue Mar 14 14:31:34 2023

Memory usage per processor = 7.06107 Mbytes
    Step    Atoms 
  353000     1400 
  354000     1400 
Loop time of 0.326432 on 4 procs for 1000 steps with 1400 atoms, finish time Tue Mar 14 14:31:35 2023


Pair  time (%) = 0.120909 (37.0397)
Neigh time (%) = 0 (0)
Comm  time (%) = 0.0101027 (3.09488)
Outpt time (%) = 0.000178863 (0.0547933)
Other time (%) = 0.195241 (59.8106)

Nlocal:    350 ave 838 max 0 min
Histogram: 2 0 0 0 0 0 1 0 0 1
Nghost:    553.5 ave 1250 max 0 min
Histogram: 2 0 0 0 0 0 0 1 0 1
Neighs:    7766.5 ave 18469 max 0 min
Histogram: 2 0 0 0 0 0 1 0 0 1

Total # of neighbors = 31066
Ave neighs/atom = 22.19
Neighbor list builds = 0
Dangerous builds = 0
LIGGGHTS finished

 timeStepFraction() = 1
[0] cellI = 40
[0] index = 0
[0] Us = (8.00027e-06 -1.33256e-05 -7.83719e-06)
[0] Ur = (-1.41441e-05 1.56748e-06 -0.00173083)
[0] dprim = 1
[0] phi = 1
[0] rho = 1
[0] nuf = 0.001
[0] voidfraction = 0.559582
[0] Rep = 0
[0] betaP = 0.121087
[0] drag = (-8.96744e-07 9.93794e-08 -0.000109736)
[3] cellI = 40
[3] index = 1
[3] Us = (-5.83842e-06 1.13935e-06 -1.64036e-05)
[3] Ur = (6.68154e-06 1.22792e-05 -0.00157029)
[3] dprim = 1
[3] phi = 1
[3] rho = 1
[3] nuf = 0.001
[3] voidfraction = 0.537607
[3] Rep = 0
[3] betaP = 0.131762
[3] drag = (4.60963e-07 8.47147e-07 -0.000108336)

Solver level total Eulerian momentum exchange:
  TotalForceImp:  (0.00589965 0.00410052 0.30161)
  Warning, these values are based on latest Ksl and Us but prev. iteration U!

DILUPBiCG:  Solving for Ux, Initial residual = 0.211862, Final residual = 4.08028e-05, No Iterations 1
DILUPBiCG:  Solving for Uy, Initial residual = 0.243097, Final residual = 4.08415e-05, No Iterations 1
DILUPBiCG:  Solving for Uz, Initial residual = 0.113713, Final residual = 9.98439e-06, No Iterations 1
DICPCG:  Solving for p, Initial residual = 0.00396, Final residual = 0.000322759, No Iterations 23
DICPCG:  Solving for p, Initial residual = 0.000413809, Final residual = 2.73613e-05, No Iterations 3
time step continuity errors : sum local = 4.46108e-07, global = 1.66434e-08, cumulative = 1.87048e-08
DICPCG:  Solving for p, Initial residual = 7.54416e-05, Final residual = 4.05099e-06, No Iterations 23
DICPCG:  Solving for p, Initial residual = 4.0395e-06, Final residual = 4.70045e-07, No Iterations 2
time step continuity errors : sum local = 7.68385e-09, global = -3.53966e-10, cumulative = 1.83508e-08
DICPCG:  Solving for p, Initial residual = 8.52138e-07, Final residual = 8.52138e-07, No Iterations 0
DICPCG:  Solving for p, Initial residual = 8.52138e-07, Final residual = 8.52138e-07, No Iterations 0
time step continuity errors : sum local = 1.393e-08, global = -6.59129e-10, cumulative = 1.76917e-08
DICPCG:  Solving for p, Initial residual = 8.59218e-07, Final residual = 8.59218e-07, No Iterations 0
DICPCG:  Solving for p, Initial residual = 8.59218e-07, Final residual = 8.59218e-07, No Iterations 0
time step continuity errors : sum local = 1.40457e-08, global = -6.64984e-10, cumulative = 1.70267e-08
ExecutionTime = 1.4 s  ClockTime = 2 s

Time = 50

Courant Number mean: 0.0100157 max: 0.0115422

 Coupling...
Starting up LIGGGHTS
Executing command: 'run 1000    '
Setting up run at Tue Mar 14 14:31:35 2023

Memory usage per processor = 7.06107 Mbytes
    Step    Atoms 
  354000     1400 
  355000     1400 
Loop time of 0.334533 on 4 procs for 1000 steps with 1400 atoms, finish time Tue Mar 14 14:31:35 2023


Pair  time (%) = 0.123169 (36.818)
Neigh time (%) = 0 (0)
Comm  time (%) = 0.0100466 (3.00318)
Outpt time (%) = 0.000180233 (0.053876)
Other time (%) = 0.201138 (60.1249)

Nlocal:    350 ave 838 max 0 min
Histogram: 2 0 0 0 0 0 1 0 0 1
Nghost:    553.25 ave 1249 max 0 min
Histogram: 2 0 0 0 0 0 0 1 0 1
Neighs:    7763.5 ave 18459 max 0 min
Histogram: 2 0 0 0 0 0 1 0 0 1

Total # of neighbors = 31054
Ave neighs/atom = 22.1814
Neighbor list builds = 0
Dangerous builds = 0
LIGGGHTS finished

 timeStepFraction() = 1
[3] cellI = 40
[3] index = 1
[3] Us = (-2.52033e-06 2.29855e-06 -1.26721e-06)
[3] Ur = (3.9286e-06 2.58308e-06 -0.00155229)
[3] dprim = 1
[3] phi = 1
[3] rho = 1
[3] nuf = 0.001
[3] voidfraction = 0.537675
[3] Rep = 0
[3] betaP = 0.131696
[3] drag = (2.70899e-07 1.78118e-07 -0.000107039)
[0] cellI = 40
[0] index = 0
[0] Us = (-4.64608e-06 6.24723e-06 -7.40463e-06)
[0] Ur = (6.01328e-07 -1.92413e-05 -0.00172131)
[0] dprim = 1
[0] phi = 1
[0] rho = 1
[0] nuf = 0.001
[0] voidfraction = 0.559666
[0] Rep = 0
[0] betaP = 0.12103
[0] drag = (3.81067e-08 -1.21934e-06 -0.000109081)

Solver level total Eulerian momentum exchange:
  TotalForceImp:  (0.000548088 0.000349351 0.334758)
  Warning, these values are based on latest Ksl and Us but prev. iteration U!

DILUPBiCG:  Solving for Ux, Initial residual = 0.150778, Final residual = 3.48194e-05, No Iterations 1
DILUPBiCG:  Solving for Uy, Initial residual = 0.161386, Final residual = 3.17087e-05, No Iterations 1
DILUPBiCG:  Solving for Uz, Initial residual = 0.0470041, Final residual = 6.11005e-06, No Iterations 1
DICPCG:  Solving for p, Initial residual = 0.00242672, Final residual = 0.000207776, No Iterations 23
DICPCG:  Solving for p, Initial residual = 0.000190371, Final residual = 1.34115e-05, No Iterations 3
time step continuity errors : sum local = 2.39525e-07, global = -1.18152e-08, cumulative = 5.21154e-09
DICPCG:  Solving for p, Initial residual = 3.10401e-05, Final residual = 1.65043e-06, No Iterations 23
DICPCG:  Solving for p, Initial residual = 1.65179e-06, Final residual = 6.25836e-07, No Iterations 1
time step continuity errors : sum local = 1.11665e-08, global = -1.9487e-10, cumulative = 5.01667e-09
DICPCG:  Solving for p, Initial residual = 6.42029e-07, Final residual = 6.42029e-07, No Iterations 0
DICPCG:  Solving for p, Initial residual = 6.42029e-07, Final residual = 6.42029e-07, No Iterations 0
time step continuity errors : sum local = 1.14555e-08, global = 4.19379e-12, cumulative = 5.02086e-09
DICPCG:  Solving for p, Initial residual = 6.42016e-07, Final residual = 6.42016e-07, No Iterations 0
DICPCG:  Solving for p, Initial residual = 6.42016e-07, Final residual = 6.42016e-07, No Iterations 0
time step continuity errors : sum local = 1.14552e-08, global = 8.0003e-12, cumulative = 5.02886e-09
ExecutionTime = 1.74 s  ClockTime = 2 s

Time = 60

Courant Number mean: 0.0100161 max: 0.0115843

 Coupling...
Starting up LIGGGHTS
Executing command: 'run 1000    '
Setting up run at Tue Mar 14 14:31:35 2023

Memory usage per processor = 7.06107 Mbytes
    Step    Atoms 
  355000     1400 
  356000     1400 
Loop time of 0.335962 on 4 procs for 1000 steps with 1400 atoms, finish time Tue Mar 14 14:31:35 2023


Pair  time (%) = 0.123093 (36.6388)
Neigh time (%) = 0 (0)
Comm  time (%) = 0.0100643 (2.99566)
Outpt time (%) = 0.000187774 (0.0558915)
Other time (%) = 0.202617 (60.3096)

Nlocal:    350 ave 838 max 0 min
Histogram: 2 0 0 0 0 0 1 0 0 1
Nghost:    553.25 ave 1249 max 0 min
Histogram: 2 0 0 0 0 0 0 1 0 1
Neighs:    7766.25 ave 18474 max 0 min
Histogram: 2 0 0 0 0 0 1 0 0 1

Total # of neighbors = 31065
Ave neighs/atom = 22.1893
Neighbor list builds = 0
Dangerous builds = 0
LIGGGHTS finished

 timeStepFraction() = 1
[3] cellI = 40
[3] index = 1
[3] Us = (-2.67883e-06 -3.05581e-08 7.1237e-07)
[3] Ur = (2.93507e-06 7.26846e-06 -0.00153027)
[3] dprim = 1
[3] phi = 1
[3] rho = 1
[3] nuf = 0.001
[3] voidfraction = 0.537675
[3] Rep = 0
[3] betaP = 0.131657
[3] drag = (2.02331e-07 5.01055e-07 -0.00010549)
[0] cellI = 40
[0] index = 0
[0] Us = (-4.55258e-06 6.10389e-07 2.07885e-06)
[0] Ur = (-3.10084e-07 -1.1679e-05 -0.00172683)
[0] dprim = 1
[0] phi = 1
[0] rho = 1
[0] nuf = 0.001
[0] voidfraction = 0.559668
[0] Rep = 0
[0] betaP = 0.121038
[0] drag = (-1.96518e-08 -7.4016e-07 -0.000109439)

Solver level total Eulerian momentum exchange:
  TotalForceImp:  (0.00612129 0.000596282 0.349966)
  Warning, these values are based on latest Ksl and Us but prev. iteration U!

DILUPBiCG:  Solving for Ux, Initial residual = 0.17571, Final residual = 2.60586e-05, No Iterations 1
DILUPBiCG:  Solving for Uy, Initial residual = 0.0814727, Final residual = 2.17813e-05, No Iterations 1
DILUPBiCG:  Solving for Uz, Initial residual = 0.0255624, Final residual = 5.0226e-06, No Iterations 1
DICPCG:  Solving for p, Initial residual = 0.00143466, Final residual = 7.19496e-05, No Iterations 23
DICPCG:  Solving for p, Initial residual = 6.89207e-05, Final residual = 4.30724e-06, No Iterations 3
time step continuity errors : sum local = 8.02654e-08, global = -3.09079e-09, cumulative = 1.93807e-09
DICPCG:  Solving for p, Initial residual = 1.28329e-05, Final residual = 6.40124e-07, No Iterations 23
DICPCG:  Solving for p, Initial residual = 6.40384e-07, Final residual = 6.40384e-07, No Iterations 0
time step continuity errors : sum local = 1.1928e-08, global = 1.2043e-10, cumulative = 2.0585e-09
DICPCG:  Solving for p, Initial residual = 6.25347e-07, Final residual = 6.25347e-07, No Iterations 0
DICPCG:  Solving for p, Initial residual = 6.25347e-07, Final residual = 6.25347e-07, No Iterations 0
time step continuity errors : sum local = 1.1648e-08, global = 1.74157e-10, cumulative = 2.23266e-09
DICPCG:  Solving for p, Initial residual = 6.24977e-07, Final residual = 6.24977e-07, No Iterations 0
DICPCG:  Solving for p, Initial residual = 6.24977e-07, Final residual = 6.24977e-07, No Iterations 0
time step continuity errors : sum local = 1.1641e-08, global = 1.75189e-10, cumulative = 2.40785e-09
ExecutionTime = 2.08 s  ClockTime = 2 s

Time = 70

Courant Number mean: 0.0100163 max: 0.0116501

 Coupling...
Starting up LIGGGHTS
Executing command: 'run 1000    '
Setting up run at Tue Mar 14 14:31:35 2023

Memory usage per processor = 7.06107 Mbytes
    Step    Atoms 
  356000     1400 
  357000     1400 
Loop time of 0.338725 on 4 procs for 1000 steps with 1400 atoms, finish time Tue Mar 14 14:31:36 2023


Pair  time (%) = 0.124049 (36.6223)
Neigh time (%) = 0 (0)
Comm  time (%) = 0.0100776 (2.97515)
Outpt time (%) = 0.000188437 (0.0556314)
Other time (%) = 0.20441 (60.3469)

Nlocal:    350 ave 838 max 0 min
Histogram: 2 0 0 0 0 0 1 0 0 1
Nghost:    552.75 ave 1247 max 0 min
Histogram: 2 0 0 0 0 0 0 1 0 1
Neighs:    7772 ave 18497 max 0 min
Histogram: 2 0 0 0 0 0 1 0 0 1

Total # of neighbors = 31088
Ave neighs/atom = 22.2057
Neighbor list builds = 0
Dangerous builds = 0
LIGGGHTS finished

 timeStepFraction() = 1
[0] cellI = 40
[0] index = 0
[0] Us = (-1.0835e-05 2.91543e-06 2.65881e-06)
[0] Ur = (6.55702e-06 -1.47744e-05 -0.00172591)
[0] dprim = 1
[0] phi = 1
[0] rho = 1
[0] nuf = 0.001
[0] voidfraction = 0.559739
[0] Rep = 0
[0] betaP = 0.121002
[0] drag = (4.15432e-07 -9.36059e-07 -0.000109348)
[3] cellI = 40
[3] index = 1
[3] Us = (-2.89726e-06 4.66898e-07 1.69183e-06)
[3] Ur = (2.00443e-06 6.87365e-06 -0.00151824)
[3] dprim = 1
[3] phi = 1
[3] rho = 1
[3] nuf = 0.001
[3] voidfraction = 0.537799
[3] Rep = 0
[3] betaP = 0.131572
[3] drag = (1.38087e-07 4.73531e-07 -0.000104593)

Solver level total Eulerian momentum exchange:
  TotalForceImp:  (0.000682792 0.000536898 0.352433)
  Warning, these values are based on latest Ksl and Us but prev. iteration U!

DILUPBiCG:  Solving for Ux, Initial residual = 0.165498, Final residual = 3.4939e-05, No Iterations 1
DILUPBiCG:  Solving for Uy, Initial residual = 0.0816024, Final residual = 1.7463e-05, No Iterations 1
DILUPBiCG:  Solving for Uz, Initial residual = 0.0119098, Final residual = 4.1307e-06, No Iterations 1
DICPCG:  Solving for p, Initial residual = 0.00105403, Final residual = 9.06922e-05, No Iterations 3
DICPCG:  Solving for p, Initial residual = 9.07146e-05, Final residual = 7.9493e-06, No Iterations 22
time step continuity errors : sum local = 1.48042e-07, global = 3.24954e-09, cumulative = 5.65738e-09
DICPCG:  Solving for p, Initial residual = 1.25531e-05, Final residual = 1.19054e-06, No Iterations 11
DICPCG:  Solving for p, Initial residual = 1.19054e-06, Final residual = 6.64246e-07, No Iterations 1
time step continuity errors : sum local = 1.2467e-08, global = 6.16778e-09, cumulative = 1.18252e-08
DICPCG:  Solving for p, Initial residual = 6.89017e-07, Final residual = 6.89017e-07, No Iterations 0
DICPCG:  Solving for p, Initial residual = 6.89017e-07, Final residual = 6.89017e-07, No Iterations 0
time step continuity errors : sum local = 1.29319e-08, global = 6.24753e-09, cumulative = 1.80727e-08
DICPCG:  Solving for p, Initial residual = 6.89475e-07, Final residual = 6.89475e-07, No Iterations 0
DICPCG:  Solving for p, Initial residual = 6.89475e-07, Final residual = 6.89475e-07, No Iterations 0
time step continuity errors : sum local = 1.29405e-08, global = 6.24923e-09, cumulative = 2.43219e-08
ExecutionTime = 2.43 s  ClockTime = 3 s

Time = 80

Courant Number mean: 0.0100175 max: 0.0117069

 Coupling...
Starting up LIGGGHTS
Executing command: 'run 1000    '
Setting up run at Tue Mar 14 14:31:36 2023

Memory usage per processor = 7.06107 Mbytes
    Step    Atoms 
  357000     1400 
  358000     1400 
Loop time of 0.342379 on 4 procs for 1000 steps with 1400 atoms, finish time Tue Mar 14 14:31:36 2023


Pair  time (%) = 0.125332 (36.6063)
Neigh time (%) = 0 (0)
Comm  time (%) = 0.0100445 (2.93373)
Outpt time (%) = 0.000189975 (0.0554868)
Other time (%) = 0.206812 (60.4044)

Nlocal:    350 ave 838 max 0 min
Histogram: 2 0 0 0 0 0 1 0 0 1
Nghost:    552.75 ave 1247 max 0 min
Histogram: 2 0 0 0 0 0 0 1 0 1
Neighs:    7778.5 ave 18522 max 0 min
Histogram: 2 0 0 0 0 0 1 0 0 1

Total # of neighbors = 31114
Ave neighs/atom = 22.2243
Neighbor list builds = 0
Dangerous builds = 0
LIGGGHTS finished

 timeStepFraction() = 1
[3] cellI = 40
[3] index = 1
[3] Us = (1.96064e-06 -1.44047e-06 -5.40352e-07)
[3] Ur = (-2.91196e-06 8.79551e-06 -0.00149928)
[3] dprim = 1
[3] phi = 1
[3] rho = 1
[3] nuf = 0.001
[3] voidfraction = 0.537681
[3] Rep = 0
[3] betaP = 0.131599
[3] drag = (-2.00649e-07 6.06057e-07 -0.000103309)
[0] cellI = 40
[0] index = 0
[0] Us = (3.7938e-06 -2.63641e-08 -2.19145e-06)
[0] Ur = (-8.71402e-06 -1.03599e-05 -0.0017194)
[0] dprim = 1
[0] phi = 1
[0] rho = 1
[0] nuf = 0.001
[0] voidfraction = 0.559675
[0] Rep = 0
[0] betaP = 0.121022
[0] drag = (-5.52179e-07 -6.56474e-07 -0.000108953)

Solver level total Eulerian momentum exchange:
  TotalForceImp:  (0.00632831 0.000396452 0.342453)
  Warning, these values are based on latest Ksl and Us but prev. iteration U!

DILUPBiCG:  Solving for Ux, Initial residual = 0.176556, Final residual = 2.7689e-05, No Iterations 1
DILUPBiCG:  Solving for Uy, Initial residual = 0.083214, Final residual = 2.20654e-05, No Iterations 1
DILUPBiCG:  Solving for Uz, Initial residual = 0.0149478, Final residual = 3.78821e-06, No Iterations 1
DICPCG:  Solving for p, Initial residual = 0.0012043, Final residual = 5.1629e-05, No Iterations 23
DICPCG:  Solving for p, Initial residual = 5.298e-05, Final residual = 2.83785e-06, No Iterations 3
time step continuity errors : sum local = 5.18817e-08, global = 2.61785e-09, cumulative = 2.69398e-08
DICPCG:  Solving for p, Initial residual = 1.01609e-05, Final residual = 4.51849e-07, No Iterations 23
DICPCG:  Solving for p, Initial residual = 4.51733e-07, Final residual = 4.51733e-07, No Iterations 0
time step continuity errors : sum local = 8.26052e-09, global = 1.45107e-10, cumulative = 2.70849e-08
DICPCG:  Solving for p, Initial residual = 4.43509e-07, Final residual = 4.43509e-07, No Iterations 0
DICPCG:  Solving for p, Initial residual = 4.43509e-07, Final residual = 4.43509e-07, No Iterations 0
time step continuity errors : sum local = 8.11013e-09, global = 1.09718e-10, cumulative = 2.71946e-08
DICPCG:  Solving for p, Initial residual = 4.42973e-07, Final residual = 4.42973e-07, No Iterations 0
DICPCG:  Solving for p, Initial residual = 4.42973e-07, Final residual = 4.42973e-07, No Iterations 0
time step continuity errors : sum local = 8.10032e-09, global = 1.09016e-10, cumulative = 2.73036e-08
ExecutionTime = 2.77 s  ClockTime = 3 s

Time = 90

Courant Number mean: 0.0100171 max: 0.0117117

 Coupling...
Starting up LIGGGHTS
Executing command: 'run 1000    '
Setting up run at Tue Mar 14 14:31:36 2023

Memory usage per processor = 7.06107 Mbytes
    Step    Atoms 
  358000     1400 
  359000     1400 
Loop time of 0.343609 on 4 procs for 1000 steps with 1400 atoms, finish time Tue Mar 14 14:31:37 2023


Pair  time (%) = 0.125317 (36.4709)
Neigh time (%) = 0 (0)
Comm  time (%) = 0.0100646 (2.92908)
Outpt time (%) = 0.000189773 (0.0552294)
Other time (%) = 0.208037 (60.5448)

Nlocal:    350 ave 838 max 0 min
Histogram: 2 0 0 0 0 0 1 0 0 1
Nghost:    552.75 ave 1247 max 0 min
Histogram: 2 0 0 0 0 0 0 1 0 1
Neighs:    7781.5 ave 18532 max 0 min
Histogram: 2 0 0 0 0 0 1 0 0 1

Total # of neighbors = 31126
Ave neighs/atom = 22.2329
Neighbor list builds = 0
Dangerous builds = 0
LIGGGHTS finished

 timeStepFraction() = 1
[0] cellI = 40
[0] index = 0
[0] Us = (1.99069e-07 -4.80467e-07 -2.42405e-06)
[0] Ur = (-1.85667e-06 -9.98575e-06 -0.00171716)
[0] dprim = 1
[0] phi = 1
[0] rho = 1
[0] nuf = 0.001
[0] voidfraction = 0.559672
[0] Rep = 0
[0] betaP = 0.121019
[0] drag = (-1.17649e-07 -6.32752e-07 -0.000108809)
[3] cellI = 40
[3] index = 1
[3] Us = (-2.0799e-06 -3.31998e-08 -2.98167e-06)
[3] Ur = (3.36045e-06 6.78188e-06 -0.00149181)
[3] dprim = 1
[3] phi = 1
[3] rho = 1
[3] nuf = 0.001
[3] voidfraction = 0.53768
[3] Rep = 0
[3] betaP = 0.131587
[3] drag = (2.31531e-07 4.67264e-07 -0.000102784)

Solver level total Eulerian momentum exchange:
  TotalForceImp:  (0.000245626 -0.00166824 0.339705)
  Warning, these values are based on latest Ksl and Us but prev. iteration U!

DILUPBiCG:  Solving for Ux, Initial residual = 0.14155, Final residual = 2.46292e-05, No Iterations 1
DILUPBiCG:  Solving for Uy, Initial residual = 0.0938831, Final residual = 1.94474e-05, No Iterations 1
DILUPBiCG:  Solving for Uz, Initial residual = 0.00810155, Final residual = 2.89862e-06, No Iterations 1
DICPCG:  Solving for p, Initial residual = 0.000859356, Final residual = 6.88401e-05, No Iterations 22
DICPCG:  Solving for p, Initial residual = 6.94467e-05, Final residual = 4.61123e-06, No Iterations 4
time step continuity errors : sum local = 8.35888e-08, global = 3.70692e-11, cumulative = 2.73407e-08
DICPCG:  Solving for p, Initial residual = 8.4194e-06, Final residual = 7.36329e-07, No Iterations 10
DICPCG:  Solving for p, Initial residual = 7.36344e-07, Final residual = 7.36344e-07, No Iterations 0
time step continuity errors : sum local = 1.33468e-08, global = -8.03689e-11, cumulative = 2.72603e-08
DICPCG:  Solving for p, Initial residual = 7.67129e-07, Final residual = 7.67129e-07, No Iterations 0
DICPCG:  Solving for p, Initial residual = 7.67129e-07, Final residual = 7.67129e-07, No Iterations 0
time step continuity errors : sum local = 1.39048e-08, global = -1.08761e-10, cumulative = 2.71515e-08
DICPCG:  Solving for p, Initial residual = 7.67351e-07, Final residual = 7.67351e-07, No Iterations 0
DICPCG:  Solving for p, Initial residual = 7.67351e-07, Final residual = 7.67351e-07, No Iterations 0
time step continuity errors : sum local = 1.39088e-08, global = -1.09444e-10, cumulative = 2.70421e-08
ExecutionTime = 3.12 s  ClockTime = 4 s

Time = 100

Courant Number mean: 0.0100171 max: 0.0117092

 Coupling...
Starting up LIGGGHTS
Executing command: 'run 1000    '
Setting up run at Tue Mar 14 14:31:37 2023

Memory usage per processor = 7.06107 Mbytes
    Step    Atoms 
  359000     1400 
  360000     1400 
Loop time of 0.348263 on 4 procs for 1000 steps with 1400 atoms, finish time Tue Mar 14 14:31:37 2023


Pair  time (%) = 0.125418 (36.0124)
Neigh time (%) = 0 (0)
Comm  time (%) = 0.0100403 (2.88297)
Outpt time (%) = 0.00499001 (1.43283)
Other time (%) = 0.207815 (59.6718)

Nlocal:    350 ave 838 max 0 min
Histogram: 2 0 0 0 0 0 1 0 0 1
Nghost:    552.75 ave 1247 max 0 min
Histogram: 2 0 0 0 0 0 0 1 0 1
Neighs:    7782.75 ave 18539 max 0 min
Histogram: 2 0 0 0 0 0 1 0 0 1

Total # of neighbors = 31131
Ave neighs/atom = 22.2364
Neighbor list builds = 0
Dangerous builds = 0
Executing command: 'write_restart ../DEM/liggghts.restartCFDEM'
System init for write_restart ...
LIGGGHTS finished

 timeStepFraction() = 1
[3] cellI = 40
[3] index = 1
[3] Us = (3.11487e-06 4.09665e-06 1.5498e-06)
[3] Ur = (-3.58038e-06 1.70717e-06 -0.00148712)
[3] dprim = 1
[3] phi = 1
[3] rho = 1
[3] nuf = 0.001
[3] voidfraction = 0.537677
[3] Rep = 0
[3] betaP = 0.13158
[3] drag = (-2.46672e-07 1.17616e-07 -0.000102456)
[0] cellI = 40
[0] index = 0
[0] Us = (1.67897e-07 3.11965e-06 -4.12741e-07)
[0] Ur = (-2.56964e-06 -1.33717e-05 -0.00172031)
[0] dprim = 1
[0] phi = 1
[0] rho = 1
[0] nuf = 0.001
[0] voidfraction = 0.559638
[0] Rep = 0
[0] betaP = 0.121041
[0] drag = (-1.62855e-07 -8.47457e-07 -0.000109028)

Solver level total Eulerian momentum exchange:
  TotalForceImp:  (0.00621394 0.0010347 0.346752)
  Warning, these values are based on latest Ksl and Us but prev. iteration U!

DILUPBiCG:  Solving for Ux, Initial residual = 0.174909, Final residual = 2.3153e-05, No Iterations 1
DILUPBiCG:  Solving for Uy, Initial residual = 0.0762937, Final residual = 1.32993e-05, No Iterations 1
DILUPBiCG:  Solving for Uz, Initial residual = 0.0121085, Final residual = 2.5772e-06, No Iterations 1
DICPCG:  Solving for p, Initial residual = 0.000973346, Final residual = 7.20782e-05, No Iterations 23
DICPCG:  Solving for p, Initial residual = 7.05642e-05, Final residual = 3.68142e-06, No Iterations 4
time step continuity errors : sum local = 6.81674e-08, global = -2.51369e-09, cumulative = 2.45284e-08
DICPCG:  Solving for p, Initial residual = 1.03247e-05, Final residual = 6.88292e-07, No Iterations 23
DICPCG:  Solving for p, Initial residual = 6.88431e-07, Final residual = 6.88431e-07, No Iterations 0
time step continuity errors : sum local = 1.27443e-08, global = -6.1508e-11, cumulative = 2.44669e-08
DICPCG:  Solving for p, Initial residual = 6.84935e-07, Final residual = 6.84935e-07, No Iterations 0
DICPCG:  Solving for p, Initial residual = 6.84935e-07, Final residual = 6.84935e-07, No Iterations 0
time step continuity errors : sum local = 1.26796e-08, global = -1.25327e-11, cumulative = 2.44544e-08
DICPCG:  Solving for p, Initial residual = 6.8491e-07, Final residual = 6.8491e-07, No Iterations 0
DICPCG:  Solving for p, Initial residual = 6.8491e-07, Final residual = 6.8491e-07, No Iterations 0
time step continuity errors : sum local = 1.26791e-08, global = -1.15852e-11, cumulative = 2.44428e-08
ExecutionTime = 3.48 s  ClockTime = 4 s

Time = 110

Courant Number mean: 0.0100169 max: 0.0116781

 Coupling...
Starting up LIGGGHTS
Executing command: 'run 1000    '
Setting up run at Tue Mar 14 14:31:37 2023

Memory usage per processor = 7.06107 Mbytes
    Step    Atoms 
  360000     1400 
  361000     1400 
Loop time of 0.343842 on 4 procs for 1000 steps with 1400 atoms, finish time Tue Mar 14 14:31:37 2023


Pair  time (%) = 0.125335 (36.4514)
Neigh time (%) = 0 (0)
Comm  time (%) = 0.0100462 (2.92176)
Outpt time (%) = 0.000190945 (0.0555327)
Other time (%) = 0.20827 (60.5713)

Nlocal:    350 ave 838 max 0 min
Histogram: 2 0 0 0 0 0 1 0 0 1
Nghost:    552.75 ave 1247 max 0 min
Histogram: 2 0 0 0 0 0 0 1 0 1
Neighs:    7785.25 ave 18546 max 0 min
Histogram: 2 0 0 0 0 0 1 0 0 1

Total # of neighbors = 31141
Ave neighs/atom = 22.2436
Neighbor list builds = 0
Dangerous builds = 0
Executing command: 'write_restart ../DEM/liggghts.restartCFDEM'
System init for write_restart ...
LIGGGHTS finished

 timeStepFraction() = 1
[3] cellI = 40
[3] index = 1
[3] Us = (-1.1307e-06 4.68995e-06 -4.57881e-07)
[0] cellI = 40
[0] index = 0
[0] Us = (2.42115e-06 -2.80335e-07 2.76907e-06)
[0] Ur = (-3.35651e-06 -7.37456e-06 -0.00172361)
[3] Ur = (1.91012e-06 3.08455e-06 -0.00148436)
[3] dprim = 1
[0] dprim = 1
[0] phi = 1
[0] rho = 1
[3] phi = 1
[3] rho = 1
[3] nuf = 0.001
[3] voidfraction = 0.53768
[0] nuf = 0.001
[0] voidfraction = 0.55964
[0] Rep = 0
[0] betaP = 0.121046
[0] drag = (-2.12733e-07 -4.67395e-07 -0.000109242)
[3] Rep = 0
[3] betaP = 0.131574
[3] drag = (1.31592e-07 2.125e-07 -0.00010226)

Solver level total Eulerian momentum exchange:
  TotalForceImp:  (0.000258778 -6.77465e-05 0.349876)
  Warning, these values are based on latest Ksl and Us but prev. iteration U!

DILUPBiCG:  Solving for Ux, Initial residual = 0.161158, Final residual = 2.08972e-05, No Iterations 1
DILUPBiCG:  Solving for Uy, Initial residual = 0.047129, Final residual = 1.35136e-05, No Iterations 1
DILUPBiCG:  Solving for Uz, Initial residual = 0.00712874, Final residual = 2.14532e-06, No Iterations 1
DICPCG:  Solving for p, Initial residual = 0.000635101, Final residual = 5.49635e-05, No Iterations 22
DICPCG:  Solving for p, Initial residual = 5.4551e-05, Final residual = 4.33774e-06, No Iterations 3
time step continuity errors : sum local = 8.09144e-08, global = -3.43132e-09, cumulative = 2.10115e-08
DICPCG:  Solving for p, Initial residual = 8.13389e-06, Final residual = 8.81443e-07, No Iterations 10
DICPCG:  Solving for p, Initial residual = 8.81438e-07, Final residual = 8.81438e-07, No Iterations 0
time step continuity errors : sum local = 1.64417e-08, global = 5.82988e-10, cumulative = 2.15945e-08
DICPCG:  Solving for p, Initial residual = 8.87918e-07, Final residual = 8.87918e-07, No Iterations 0
DICPCG:  Solving for p, Initial residual = 8.87918e-07, Final residual = 8.87918e-07, No Iterations 0
time step continuity errors : sum local = 1.65626e-08, global = 6.41684e-10, cumulative = 2.22361e-08
DICPCG:  Solving for p, Initial residual = 8.88029e-07, Final residual = 8.88029e-07, No Iterations 0
DICPCG:  Solving for p, Initial residual = 8.88029e-07, Final residual = 8.88029e-07, No Iterations 0
time step continuity errors : sum local = 1.65646e-08, global = 6.42968e-10, cumulative = 2.28791e-08
ExecutionTime = 3.83 s  ClockTime = 4 s

Time = 120

Courant Number mean: 0.0100173 max: 0.0116956

 Coupling...
Starting up LIGGGHTS
Executing command: 'run 1000    '
Setting up run at Tue Mar 14 14:31:37 2023

Memory usage per processor = 7.06107 Mbytes
    Step    Atoms 
  361000     1400 
  362000     1400 
Loop time of 0.347197 on 4 procs for 1000 steps with 1400 atoms, finish time Tue Mar 14 14:31:38 2023


Pair  time (%) = 0.12617 (36.3396)
Neigh time (%) = 0 (0)
Comm  time (%) = 0.0100199 (2.88593)
Outpt time (%) = 0.000193193 (0.0556436)
Other time (%) = 0.210814 (60.7188)

Nlocal:    350 ave 838 max 0 min
Histogram: 2 0 0 0 0 0 1 0 0 1
Nghost:    552.75 ave 1247 max 0 min
Histogram: 2 0 0 0 0 0 0 1 0 1
Neighs:    7786.25 ave 18551 max 0 min
Histogram: 2 0 0 0 0 0 1 0 0 1

Total # of neighbors = 31145
Ave neighs/atom = 22.2464
Neighbor list builds = 0
Dangerous builds = 0
Executing command: 'write_restart ../DEM/liggghts.restartCFDEM'
System init for write_restart ...
LIGGGHTS finished

 timeStepFraction() = 1
[3] cellI = 40
[3] index = 1
[3] Us = (5.66649e-06 2.28279e-06 1.95826e-06)
[3] Ur = (-5.4341e-06 5.62007e-06 -0.00148187)
[3] dprim = 1
[3] phi = 1
[3] rho = 1
[3] nuf = 0.001
[3] voidfraction = 0.537681
[3] Rep = 0
[3] betaP = 0.131569
[3] drag = (-3.74353e-07 3.87164e-07 -0.000102085)
[0] cellI = 40
[0] index = 0
[0] Us = (-3.17914e-06 3.85269e-06 -7.8012e-07)
[0] Ur = (2.69465e-06 -1.10603e-05 -0.00172133)
[0] dprim = 1
[0] phi = 1
[0] rho = 1
[0] nuf = 0.001
[0] voidfraction = 0.559641
[0] Rep = 0
[0] betaP = 0.121041
[0] drag = (1.70779e-07 -7.00971e-07 -0.000109093)

Solver level total Eulerian momentum exchange:
  TotalForceImp:  (0.00594482 -0.000236928 0.346071)
  Warning, these values are based on latest Ksl and Us but prev. iteration U!

DILUPBiCG:  Solving for Ux, Initial residual = 0.159489, Final residual = 2.12078e-05, No Iterations 1
DILUPBiCG:  Solving for Uy, Initial residual = 0.0553297, Final residual = 1.59111e-05, No Iterations 1
DILUPBiCG:  Solving for Uz, Initial residual = 0.00700602, Final residual = 2.08143e-06, No Iterations 1
DICPCG:  Solving for p, Initial residual = 0.000710185, Final residual = 3.52096e-05, No Iterations 23
DICPCG:  Solving for p, Initial residual = 3.55638e-05, Final residual = 2.55312e-06, No Iterations 3
time step continuity errors : sum local = 4.71513e-08, global = 2.04562e-09, cumulative = 2.49247e-08
DICPCG:  Solving for p, Initial residual = 7.51723e-06, Final residual = 9.72315e-07, No Iterations 12
DICPCG:  Solving for p, Initial residual = 9.72321e-07, Final residual = 9.72321e-07, No Iterations 0
time step continuity errors : sum local = 1.79565e-08, global = -9.01917e-09, cumulative = 1.59056e-08
DICPCG:  Solving for p, Initial residual = 9.82999e-07, Final residual = 9.82999e-07, No Iterations 0
DICPCG:  Solving for p, Initial residual = 9.82999e-07, Final residual = 9.82999e-07, No Iterations 0
time step continuity errors : sum local = 1.81536e-08, global = -9.19908e-09, cumulative = 6.70648e-09
DICPCG:  Solving for p, Initial residual = 9.8346e-07, Final residual = 9.8346e-07, No Iterations 0
DICPCG:  Solving for p, Initial residual = 9.8346e-07, Final residual = 9.8346e-07, No Iterations 0
time step continuity errors : sum local = 1.81622e-08, global = -9.20274e-09, cumulative = -2.49626e-09
ExecutionTime = 4.19 s  ClockTime = 5 s

Time = 130

Courant Number mean: 0.0100169 max: 0.0116723

 Coupling...
Starting up LIGGGHTS
Executing command: 'run 1000    '
Setting up run at Tue Mar 14 14:31:38 2023

Memory usage per processor = 7.06107 Mbytes
    Step    Atoms 
  362000     1400 
  363000     1400 
Loop time of 0.348739 on 4 procs for 1000 steps with 1400 atoms, finish time Tue Mar 14 14:31:38 2023


Pair  time (%) = 0.126529 (36.2817)
Neigh time (%) = 0 (0)
Comm  time (%) = 0.010042 (2.87951)
Outpt time (%) = 0.000193205 (0.0554011)
Other time (%) = 0.211975 (60.7834)

Nlocal:    350 ave 838 max 0 min
Histogram: 2 0 0 0 0 0 1 0 0 1
Nghost:    552.75 ave 1247 max 0 min
Histogram: 2 0 0 0 0 0 0 1 0 1
Neighs:    7791.5 ave 18572 max 0 min
Histogram: 2 0 0 0 0 0 1 0 0 1

Total # of neighbors = 31166
Ave neighs/atom = 22.2614
Neighbor list builds = 0
Dangerous builds = 0
Executing command: 'write_restart ../DEM/liggghts.restartCFDEM'
System init for write_restart ...
LIGGGHTS finished

 timeStepFraction() = 1
[0] cellI = 40
[0] index = 0
[0] Us = (-4.22384e-06 5.41241e-07 -7.65109e-07)
[0] Ur = (4.58313e-06 -6.39589e-06 -0.00172098)
[0] dprim = 1
[0] phi = 1
[0] rho = 1
[0] nuf = 0.001
[0] voidfraction = 0.55964
[0] Rep = 0
[0] betaP = 0.121041
[0] drag = (2.90464e-07 -4.05351e-07 -0.00010907)
[3] cellI = 40
[3] index = 1
[3] Us = (-4.5237e-06 -3.36639e-06 -3.06139e-06)
[3] Ur = (5.8946e-06 1.01909e-05 -0.00147662)
[3] dprim = 1
[3] phi = 1
[3] rho = 1
[3] nuf = 0.001
[3] voidfraction = 0.53768
[3] Rep = 0
[3] betaP = 0.13156
[3] drag = (4.06049e-07 7.02001e-07 -0.000101717)

Solver level total Eulerian momentum exchange:
  TotalForceImp:  (-5.76913e-05 -0.00213093 0.344395)
  Warning, these values are based on latest Ksl and Us but prev. iteration U!

DILUPBiCG:  Solving for Ux, Initial residual = 0.156808, Final residual = 2.05705e-05, No Iterations 1
DILUPBiCG:  Solving for Uy, Initial residual = 0.068321, Final residual = 1.71666e-05, No Iterations 1
DILUPBiCG:  Solving for Uz, Initial residual = 0.00519744, Final residual = 1.84372e-06, No Iterations 1
DICPCG:  Solving for p, Initial residual = 0.000663767, Final residual = 4.57849e-05, No Iterations 2
DICPCG:  Solving for p, Initial residual = 4.57857e-05, Final residual = 1.90452e-06, No Iterations 23
time step continuity errors : sum local = 3.51684e-08, global = -1.43784e-09, cumulative = -3.9341e-09
DICPCG:  Solving for p, Initial residual = 6.90646e-06, Final residual = 6.78144e-07, No Iterations 2
DICPCG:  Solving for p, Initial residual = 6.78145e-07, Final residual = 6.78145e-07, No Iterations 0
time step continuity errors : sum local = 1.24772e-08, global = 9.1995e-12, cumulative = -3.9249e-09
DICPCG:  Solving for p, Initial residual = 6.64803e-07, Final residual = 6.64803e-07, No Iterations 0
DICPCG:  Solving for p, Initial residual = 6.64803e-07, Final residual = 6.64803e-07, No Iterations 0
time step continuity errors : sum local = 1.22317e-08, global = 3.37465e-11, cumulative = -3.89116e-09
DICPCG:  Solving for p, Initial residual = 6.64596e-07, Final residual = 6.64596e-07, No Iterations 0
DICPCG:  Solving for p, Initial residual = 6.64596e-07, Final residual = 6.64596e-07, No Iterations 0
time step continuity errors : sum local = 1.22279e-08, global = 3.41866e-11, cumulative = -3.85697e-09
ExecutionTime = 4.55 s  ClockTime = 5 s

Time = 140

Courant Number mean: 0.0100176 max: 0.011658

 Coupling...
Starting up LIGGGHTS
Executing command: 'run 1000    '
Setting up run at Tue Mar 14 14:31:38 2023

Memory usage per processor = 7.06107 Mbytes
    Step    Atoms 
  363000     1400 
  364000     1400 
Loop time of 0.346711 on 4 procs for 1000 steps with 1400 atoms, finish time Tue Mar 14 14:31:38 2023


Pair  time (%) = 0.12591 (36.3156)
Neigh time (%) = 0 (0)
Comm  time (%) = 0.0100247 (2.89137)
Outpt time (%) = 0.000192151 (0.0554212)
Other time (%) = 0.210584 (60.7376)

Nlocal:    350 ave 838 max 0 min
Histogram: 2 0 0 0 0 0 1 0 0 1
Nghost:    552.75 ave 1247 max 0 min
Histogram: 2 0 0 0 0 0 0 1 0 1
Neighs:    7794.5 ave 18583 max 0 min
Histogram: 2 0 0 0 0 0 1 0 0 1

Total # of neighbors = 31178
Ave neighs/atom = 22.27
Neighbor list builds = 0
Dangerous builds = 0
Executing command: 'write_restart ../DEM/liggghts.restartCFDEM'
System init for write_restart ...
LIGGGHTS finished

 timeStepFraction() = 1
[0] cellI = 40
[0] index = 0
[0] Us = (1.52321e-07 1.77709e-06 -5.59478e-08)
[0] Ur = (-2.54771e-06 -8.63492e-06 -0.00172382)
[0] dprim = 1
[0] phi = 1
[0] rho = 1
[0] nuf = 0.001
[0] voidfraction = 0.559542
[0] Rep = 0
[0] betaP = 0.121093
[0] drag = (-1.61536e-07 -5.4749e-07 -0.000109298)
[3] cellI = 40
[3] index = 1
[3] Us = (2.12757e-06 2.73224e-06 1.25806e-06)
[3] Ur = (-2.89126e-06 1.71215e-06 -0.00147584)
[3] dprim = 1
[3] phi = 1
[3] rho = 1
[3] nuf = 0.001
[3] voidfraction = 0.537678
[3] Rep = 0
[3] betaP = 0.13156
[3] drag = (-1.99164e-07 1.17941e-07 -0.000101663)

Solver level total Eulerian momentum exchange:
  TotalForceImp:  (0.005965 0.000695891 0.347583)
  Warning, these values are based on latest Ksl and Us but prev. iteration U!

DILUPBiCG:  Solving for Ux, Initial residual = 0.140557, Final residual = 1.9457e-05, No Iterations 1
DILUPBiCG:  Solving for Uy, Initial residual = 0.0917342, Final residual = 1.5844e-05, No Iterations 1
DILUPBiCG:  Solving for Uz, Initial residual = 0.00570083, Final residual = 1.77058e-06, No Iterations 1
DICPCG:  Solving for p, Initial residual = 0.000528831, Final residual = 3.15695e-05, No Iterations 23
DICPCG:  Solving for p, Initial residual = 3.13132e-05, Final residual = 2.83105e-06, No Iterations 3
time step continuity errors : sum local = 5.25146e-08, global = -1.3369e-09, cumulative = -5.19387e-09
DICPCG:  Solving for p, Initial residual = 6.40226e-06, Final residual = 8.05415e-07, No Iterations 12
DICPCG:  Solving for p, Initial residual = 8.0541e-07, Final residual = 8.0541e-07, No Iterations 0
time step continuity errors : sum local = 1.49398e-08, global = 6.90962e-09, cumulative = 1.71576e-09
DICPCG:  Solving for p, Initial residual = 8.18787e-07, Final residual = 8.18787e-07, No Iterations 0
DICPCG:  Solving for p, Initial residual = 8.18787e-07, Final residual = 8.18787e-07, No Iterations 0
time step continuity errors : sum local = 1.5188e-08, global = 7.04933e-09, cumulative = 8.76509e-09
DICPCG:  Solving for p, Initial residual = 8.18883e-07, Final residual = 8.18883e-07, No Iterations 0
DICPCG:  Solving for p, Initial residual = 8.18883e-07, Final residual = 8.18883e-07, No Iterations 0
time step continuity errors : sum local = 1.51898e-08, global = 7.05217e-09, cumulative = 1.58173e-08
ExecutionTime = 4.9 s  ClockTime = 5 s

Time = 150

Courant Number mean: 0.0100181 max: 0.0116475

 Coupling...
Starting up LIGGGHTS
Executing command: 'run 1000    '
Setting up run at Tue Mar 14 14:31:38 2023

Memory usage per processor = 7.06107 Mbytes
    Step    Atoms 
  364000     1400 
  365000     1400 
Loop time of 0.348109 on 4 procs for 1000 steps with 1400 atoms, finish time Tue Mar 14 14:31:39 2023


Pair  time (%) = 0.126481 (36.3337)
Neigh time (%) = 0 (0)
Comm  time (%) = 0.0100515 (2.88747)
Outpt time (%) = 0.000193777 (0.0556656)
Other time (%) = 0.211383 (60.7232)

Nlocal:    350 ave 838 max 0 min
Histogram: 2 0 0 0 0 0 1 0 0 1
Nghost:    552.75 ave 1247 max 0 min
Histogram: 2 0 0 0 0 0 0 1 0 1
Neighs:    7793.25 ave 18579 max 0 min
Histogram: 2 0 0 0 0 0 1 0 0 1

Total # of neighbors = 31173
Ave neighs/atom = 22.2664
Neighbor list builds = 0
Dangerous builds = 0
Executing command: 'write_restart ../DEM/liggghts.restartCFDEM'
System init for write_restart ...
LIGGGHTS finished

 timeStepFraction() = 1
[3] cellI = 40
[3] index = 1
[3] Us = (-2.62923e-06 -3.53814e-06 4.20881e-07)
[3] Ur = (2.3344e-06 9.93147e-06 -0.00147731)
[3] dprim = 1
[3] phi = 1
[3] rho = 1
[3] nuf = 0.001
[3] voidfraction = 0.53768
[3] Rep = 0
[3] betaP = 0.131561
[3] drag = (1.60806e-07 6.84133e-07 -0.000101765)
[0] cellI = 40
[0] index = 0
[0] Us = (-2.67983e-06 -1.70367e-06 7.62814e-07)
[0] Ur = (1.37637e-06 -3.25551e-06 -0.00172457)
[0] dprim = 1
[0] phi = 1
[0] rho = 1
[0] nuf = 0.001
[0] voidfraction = 0.559543
[0] Rep = 0
[0] betaP = 0.121094
[0] drag = (8.72686e-08 -2.06415e-07 -0.000109346)

Solver level total Eulerian momentum exchange:
  TotalForceImp:  (0.000663316 -0.00252496 0.348695)
  Warning, these values are based on latest Ksl and Us but prev. iteration U!

DILUPBiCG:  Solving for Ux, Initial residual = 0.148268, Final residual = 1.54082e-05, No Iterations 1
DILUPBiCG:  Solving for Uy, Initial residual = 0.076349, Final residual = 1.08315e-05, No Iterations 1
DILUPBiCG:  Solving for Uz, Initial residual = 0.00374118, Final residual = 1.3704e-06, No Iterations 1
DICPCG:  Solving for p, Initial residual = 0.000309104, Final residual = 2.16855e-05, No Iterations 22
DICPCG:  Solving for p, Initial residual = 2.16188e-05, Final residual = 1.47475e-06, No Iterations 3
time step continuity errors : sum local = 2.74385e-08, global = -1.7315e-09, cumulative = 1.40858e-08
DICPCG:  Solving for p, Initial residual = 4.09251e-06, Final residual = 7.03071e-07, No Iterations 2
DICPCG:  Solving for p, Initial residual = 7.03071e-07, Final residual = 7.03071e-07, No Iterations 0
time step continuity errors : sum local = 1.30809e-08, global = -2.05627e-09, cumulative = 1.20295e-08
DICPCG:  Solving for p, Initial residual = 6.98372e-07, Final residual = 6.98372e-07, No Iterations 0
DICPCG:  Solving for p, Initial residual = 6.98372e-07, Final residual = 6.98372e-07, No Iterations 0
time step continuity errors : sum local = 1.29935e-08, global = -2.0658e-09, cumulative = 9.96368e-09
DICPCG:  Solving for p, Initial residual = 6.9828e-07, Final residual = 6.9828e-07, No Iterations 0
DICPCG:  Solving for p, Initial residual = 6.9828e-07, Final residual = 6.9828e-07, No Iterations 0
time step continuity errors : sum local = 1.29918e-08, global = -2.06596e-09, cumulative = 7.89773e-09
ExecutionTime = 5.26 s  ClockTime = 6 s

Time = 160

Courant Number mean: 0.0100183 max: 0.0116611

 Coupling...
Starting up LIGGGHTS
Executing command: 'run 1000    '
Setting up run at Tue Mar 14 14:31:39 2023

Memory usage per processor = 7.06107 Mbytes
    Step    Atoms 
  365000     1400 
  366000     1400 
Loop time of 0.346368 on 4 procs for 1000 steps with 1400 atoms, finish time Tue Mar 14 14:31:39 2023


Pair  time (%) = 0.126016 (36.3822)
Neigh time (%) = 0 (0)
Comm  time (%) = 0.0100145 (2.8913)
Outpt time (%) = 0.000192134 (0.0554711)
Other time (%) = 0.210145 (60.671)

Nlocal:    350 ave 838 max 0 min
Histogram: 2 0 0 0 0 0 1 0 0 1
Nghost:    552.75 ave 1247 max 0 min
Histogram: 2 0 0 0 0 0 0 1 0 1
Neighs:    7796 ave 18592 max 0 min
Histogram: 2 0 0 0 0 0 1 0 0 1

Total # of neighbors = 31184
Ave neighs/atom = 22.2743
Neighbor list builds = 0
Dangerous builds = 0
Executing command: 'write_restart ../DEM/liggghts.restartCFDEM'
System init for write_restart ...
LIGGGHTS finished

 timeStepFraction() = 1
[3] cellI = 40
[3] index = 1
[3] Us = (2.99262e-06 2.19645e-06 9.20824e-07)
[3] Ur = (-3.87962e-06 2.28857e-06 -0.0014748)
[3] dprim = 1
[3] phi = 1
[3] rho = 1
[3] nuf = 0.001
[3] voidfraction = 0.53768
[3] Rep = 0
[3] betaP = 0.131557
[3] drag = (-2.6724e-07 1.57644e-07 -0.000101589)
[0] cellI = 40
[0] index = 0
[0] Us = (2.41718e-06 9.10708e-07 -1.93267e-07)
[0] Ur = (-4.35989e-06 -7.72186e-06 -0.00172531)
[0] dprim = 1
[0] phi = 1
[0] rho = 1
[0] nuf = 0.001
[0] voidfraction = 0.559478
[0] Rep = 0
[0] betaP = 0.121126
[0] drag = (-2.76511e-07 -4.89732e-07 -0.000109422)

Solver level total Eulerian momentum exchange:
  TotalForceImp:  (0.00802582 0.000560969 0.347006)
  Warning, these values are based on latest Ksl and Us but prev. iteration U!

DILUPBiCG:  Solving for Ux, Initial residual = 0.197572, Final residual = 1.54491e-05, No Iterations 1
DILUPBiCG:  Solving for Uy, Initial residual = 0.083275, Final residual = 1.27827e-05, No Iterations 1
DILUPBiCG:  Solving for Uz, Initial residual = 0.00372788, Final residual = 1.38495e-06, No Iterations 1
DICPCG:  Solving for p, Initial residual = 0.000544892, Final residual = 5.19299e-05, No Iterations 2
DICPCG:  Solving for p, Initial residual = 5.1924e-05, Final residual = 4.67556e-06, No Iterations 22
time step continuity errors : sum local = 8.69934e-08, global = -2.18144e-09, cumulative = 5.71628e-09
DICPCG:  Solving for p, Initial residual = 8.25246e-06, Final residual = 8.01015e-07, No Iterations 3
DICPCG:  Solving for p, Initial residual = 8.01017e-07, Final residual = 8.01017e-07, No Iterations 0
time step continuity errors : sum local = 1.48428e-08, global = 6.80712e-10, cumulative = 6.397e-09
DICPCG:  Solving for p, Initial residual = 8.36914e-07, Final residual = 8.36914e-07, No Iterations 0
DICPCG:  Solving for p, Initial residual = 8.36914e-07, Final residual = 8.36914e-07, No Iterations 0
time step continuity errors : sum local = 1.5508e-08, global = 7.54849e-10, cumulative = 7.15185e-09
DICPCG:  Solving for p, Initial residual = 8.37659e-07, Final residual = 8.37659e-07, No Iterations 0
DICPCG:  Solving for p, Initial residual = 8.37659e-07, Final residual = 8.37659e-07, No Iterations 0
time step continuity errors : sum local = 1.55218e-08, global = 7.5612e-10, cumulative = 7.90797e-09
ExecutionTime = 5.61 s  ClockTime = 6 s

Time = 170

Courant Number mean: 0.0100181 max: 0.011642

 Coupling...
Starting up LIGGGHTS
Executing command: 'run 1000    '
Setting up run at Tue Mar 14 14:31:39 2023

Memory usage per processor = 7.06107 Mbytes
    Step    Atoms 
  366000     1400 
  367000     1400 
Loop time of 0.346994 on 4 procs for 1000 steps with 1400 atoms, finish time Tue Mar 14 14:31:39 2023


Pair  time (%) = 0.126299 (36.3981)
Neigh time (%) = 0 (0)
Comm  time (%) = 0.0100239 (2.88878)
Outpt time (%) = 0.000192516 (0.0554811)
Other time (%) = 0.210478 (60.6576)

Nlocal:    350 ave 838 max 0 min
Histogram: 2 0 0 0 0 0 1 0 0 1
Nghost:    552.75 ave 1247 max 0 min
Histogram: 2 0 0 0 0 0 0 1 0 1
Neighs:    7797.25 ave 18597 max 0 min
Histogram: 2 0 0 0 0 0 1 0 0 1

Total # of neighbors = 31189
Ave neighs/atom = 22.2779
Neighbor list builds = 0
Dangerous builds = 0
Executing command: 'write_restart ../DEM/liggghts.restartCFDEM'
System init for write_restart ...
LIGGGHTS finished

 timeStepFraction() = 1
[3] cellI = 40
[3] index = 1
[3] Us = (-3.23231e-06 -1.73918e-06 -7.46243e-08)
[3] Ur = (3.55245e-06 6.88455e-06 -0.00147824)
[3] dprim = 1
[3] phi = 1
[3] rho = 1
[3] nuf = 0.001
[3] voidfraction = 0.53768
[3] Rep = 0
[3] betaP = 0.131563
[3] drag = (2.44715e-07 4.74251e-07 -0.00010183)
[0] cellI = 40
[0] index = 0
[0] Us = (4.7239e-06 -3.79578e-06 1.00771e-06)
[0] Ur = (-5.22639e-06 -2.43778e-06 -0.00172547)
[0] dprim = 1
[0] phi = 1
[0] rho = 1
[0] nuf = 0.001
[0] voidfraction = 0.559477
[0] Rep = 0
[0] betaP = 0.121127
[0] drag = (-3.31468e-07 -1.54609e-07 -0.000109432)

Solver level total Eulerian momentum exchange:
  TotalForceImp:  (-0.00101022 -0.00303661 0.346579)
  Warning, these values are based on latest Ksl and Us but prev. iteration U!

DILUPBiCG:  Solving for Ux, Initial residual = 0.224998, Final residual = 2.57951e-05, No Iterations 1
DILUPBiCG:  Solving for Uy, Initial residual = 0.108976, Final residual = 2.07419e-05, No Iterations 1
DILUPBiCG:  Solving for Uz, Initial residual = 0.00347389, Final residual = 1.13375e-06, No Iterations 1
DICPCG:  Solving for p, Initial residual = 0.000452894, Final residual = 2.85083e-05, No Iterations 2
DICPCG:  Solving for p, Initial residual = 2.85089e-05, Final residual = 1.17296e-06, No Iterations 23
time step continuity errors : sum local = 2.17345e-08, global = -1.11143e-09, cumulative = 6.79653e-09
DICPCG:  Solving for p, Initial residual = 6.26506e-06, Final residual = 8.75299e-07, No Iterations 1
DICPCG:  Solving for p, Initial residual = 8.75299e-07, Final residual = 8.75299e-07, No Iterations 0
time step continuity errors : sum local = 1.61981e-08, global = -4.76574e-10, cumulative = 6.31996e-09
DICPCG:  Solving for p, Initial residual = 8.76016e-07, Final residual = 8.76016e-07, No Iterations 0
DICPCG:  Solving for p, Initial residual = 8.76016e-07, Final residual = 8.76016e-07, No Iterations 0
time step continuity errors : sum local = 1.62114e-08, global = -4.66649e-10, cumulative = 5.85331e-09
DICPCG:  Solving for p, Initial residual = 8.75987e-07, Final residual = 8.75987e-07, No Iterations 0
DICPCG:  Solving for p, Initial residual = 8.75987e-07, Final residual = 8.75987e-07, No Iterations 0
time step continuity errors : sum local = 1.62108e-08, global = -4.6648e-10, cumulative = 5.38683e-09
ExecutionTime = 5.96 s  ClockTime = 6 s

Time = 180

Courant Number mean: 0.0100186 max: 0.0116431

 Coupling...
Starting up LIGGGHTS
Executing command: 'run 1000    '
Setting up run at Tue Mar 14 14:31:39 2023

Memory usage per processor = 7.06107 Mbytes
    Step    Atoms 
  367000     1400 
  368000     1400 
Loop time of 0.347895 on 4 procs for 1000 steps with 1400 atoms, finish time Tue Mar 14 14:31:40 2023


Pair  time (%) = 0.12644 (36.3443)
Neigh time (%) = 0 (0)
Comm  time (%) = 0.0100297 (2.88297)
Outpt time (%) = 0.0001939 (0.0557354)
Other time (%) = 0.211231 (60.717)

Nlocal:    350 ave 838 max 0 min
Histogram: 2 0 0 0 0 0 1 0 0 1
Nghost:    552.25 ave 1245 max 0 min
Histogram: 2 0 0 0 0 0 0 1 0 1
Neighs:    7796 ave 18596 max 0 min
Histogram: 2 0 0 0 0 0 1 0 0 1

Total # of neighbors = 31184
Ave neighs/atom = 22.2743
Neighbor list builds = 0
Dangerous builds = 0
Executing command: 'write_restart ../DEM/liggghts.restartCFDEM'
System init for write_restart ...
LIGGGHTS finished

 timeStepFraction() = 1
[3] cellI = 40
[3] index = 1
[3] Us = (2.97622e-06 3.72534e-06 1.6283e-06)
[3] Ur = (-4.31253e-06 9.66415e-08 -0.00147678)
[3] dprim = 1
[3] phi = 1
[3] rho = 1
[3] nuf = 0.001
[3] voidfraction = 0.53768
[3] Rep = 0
[3] betaP = 0.131561
[3] drag = (-2.97069e-07 6.65716e-09 -0.000101728)
[0] cellI = 40
[0] index = 0
[0] Us = (4.1858e-06 4.66773e-08 -6.81382e-07)
[0] Ur = (-6.32839e-06 -8.77893e-06 -0.0017261)
[0] dprim = 1
[0] phi = 1
[0] rho = 1
[0] nuf = 0.001
[0] voidfraction = 0.559476
[0] Rep = 0
[0] betaP = 0.121129
[0] drag = (-4.01364e-07 -5.56784e-07 -0.000109474)

Solver level total Eulerian momentum exchange:
  TotalForceImp:  (0.00781291 0.00134009 0.347805)
  Warning, these values are based on latest Ksl and Us but prev. iteration U!

DILUPBiCG:  Solving for Ux, Initial residual = 0.214086, Final residual = 2.86372e-05, No Iterations 1
DILUPBiCG:  Solving for Uy, Initial residual = 0.129792, Final residual = 2.09715e-05, No Iterations 1
DILUPBiCG:  Solving for Uz, Initial residual = 0.00345253, Final residual = 9.94271e-07, No Iterations 1
DICPCG:  Solving for p, Initial residual = 0.000399364, Final residual = 3.46357e-05, No Iterations 22
DICPCG:  Solving for p, Initial residual = 3.45125e-05, Final residual = 1.90173e-06, No Iterations 4
time step continuity errors : sum local = 3.53183e-08, global = -9.54112e-10, cumulative = 4.43272e-09
DICPCG:  Solving for p, Initial residual = 6.02066e-06, Final residual = 7.3751e-07, No Iterations 2
DICPCG:  Solving for p, Initial residual = 7.37509e-07, Final residual = 7.37509e-07, No Iterations 0
time step continuity errors : sum local = 1.36966e-08, global = -2.21899e-09, cumulative = 2.21373e-09
DICPCG:  Solving for p, Initial residual = 7.20176e-07, Final residual = 7.20176e-07, No Iterations 0
DICPCG:  Solving for p, Initial residual = 7.20176e-07, Final residual = 7.20176e-07, No Iterations 0
time step continuity errors : sum local = 1.33747e-08, global = -2.23143e-09, cumulative = -1.7693e-11
DICPCG:  Solving for p, Initial residual = 7.19716e-07, Final residual = 7.19716e-07, No Iterations 0
DICPCG:  Solving for p, Initial residual = 7.19716e-07, Final residual = 7.19716e-07, No Iterations 0
time step continuity errors : sum local = 1.33662e-08, global = -2.23168e-09, cumulative = -2.24937e-09
ExecutionTime = 6.32 s  ClockTime = 7 s

Time = 190

Courant Number mean: 0.0100187 max: 0.0116342

 Coupling...
Starting up LIGGGHTS
Executing command: 'run 1000    '
Setting up run at Tue Mar 14 14:31:40 2023

Memory usage per processor = 7.06107 Mbytes
    Step    Atoms 
  368000     1400 
  369000     1400 
Loop time of 0.348449 on 4 procs for 1000 steps with 1400 atoms, finish time Tue Mar 14 14:31:40 2023


Pair  time (%) = 0.126297 (36.2454)
Neigh time (%) = 0 (0)
Comm  time (%) = 0.0100555 (2.88579)
Outpt time (%) = 0.000193983 (0.0556704)
Other time (%) = 0.211903 (60.8131)

Nlocal:    350 ave 838 max 0 min
Histogram: 2 0 0 0 0 0 1 0 0 1
Nghost:    552.25 ave 1245 max 0 min
Histogram: 2 0 0 0 0 0 0 1 0 1
Neighs:    7798.5 ave 18605 max 0 min
Histogram: 2 0 0 0 0 0 1 0 0 1

Total # of neighbors = 31194
Ave neighs/atom = 22.2814
Neighbor list builds = 0
Dangerous builds = 0
Executing command: 'write_restart ../DEM/liggghts.restartCFDEM'
System init for write_restart ...
LIGGGHTS finished

 timeStepFraction() = 1
[3] cellI = 40
[3] index = 1
[3] Us = (-3.57557e-06 -1.30102e-06 -3.56373e-07)
[3] Ur = (3.70623e-06 6.18392e-06 -0.00147664)
[3] dprim = 1
[3] phi = 1
[3] rho = 1
[3] nuf = 0.001
[3] voidfraction = 0.537681
[3] Rep = 0
[3] betaP = 0.13156
[3] drag = (2.55303e-07 4.25977e-07 -0.000101718)
[0] cellI = 40
[0] index = 0
[0] Us = (-3.96753e-06 -1.17705e-06 4.61575e-07)
[0] Ur = (2.01804e-06 -5.01583e-06 -0.00172615)
[0] dprim = 1
[0] phi = 1
[0] rho = 1
[0] nuf = 0.001
[0] voidfraction = 0.559477
[0] Rep = 0
[0] betaP = 0.121128
[0] drag = (1.2799e-07 -3.18117e-07 -0.000109477)

Solver level total Eulerian momentum exchange:
  TotalForceImp:  (-0.000617531 -0.00309545 0.349374)
  Warning, these values are based on latest Ksl and Us but prev. iteration U!

DILUPBiCG:  Solving for Ux, Initial residual = 0.200437, Final residual = 1.86607e-05, No Iterations 1
DILUPBiCG:  Solving for Uy, Initial residual = 0.105906, Final residual = 1.81547e-05, No Iterations 1
DILUPBiCG:  Solving for Uz, Initial residual = 0.00400451, Final residual = 9.80466e-07, No Iterations 1
DICPCG:  Solving for p, Initial residual = 0.000613767, Final residual = 5.86156e-05, No Iterations 3
DICPCG:  Solving for p, Initial residual = 5.86348e-05, Final residual = 3.87702e-06, No Iterations 22
time step continuity errors : sum local = 7.19891e-08, global = 1.57959e-09, cumulative = -6.69781e-10
DICPCG:  Solving for p, Initial residual = 8.49224e-06, Final residual = 6.79406e-07, No Iterations 3
DICPCG:  Solving for p, Initial residual = 6.79406e-07, Final residual = 6.79406e-07, No Iterations 0
time step continuity errors : sum local = 1.26794e-08, global = -2.104e-10, cumulative = -8.80181e-10
DICPCG:  Solving for p, Initial residual = 7.0901e-07, Final residual = 7.0901e-07, No Iterations 0
DICPCG:  Solving for p, Initial residual = 7.0901e-07, Final residual = 7.0901e-07, No Iterations 0
time step continuity errors : sum local = 1.32319e-08, global = -2.55659e-10, cumulative = -1.13584e-09
DICPCG:  Solving for p, Initial residual = 7.09734e-07, Final residual = 7.09734e-07, No Iterations 0
DICPCG:  Solving for p, Initial residual = 7.09734e-07, Final residual = 7.09734e-07, No Iterations 0
time step continuity errors : sum local = 1.32454e-08, global = -2.5643e-10, cumulative = -1.39227e-09
ExecutionTime = 6.67 s  ClockTime = 7 s

Time = 200

Courant Number mean: 0.0100191 max: 0.0116247

 Coupling...
Starting up LIGGGHTS
Executing command: 'run 1000    '
Setting up run at Tue Mar 14 14:31:40 2023

Memory usage per processor = 7.06107 Mbytes
    Step    Atoms 
  369000     1400 
  370000     1400 
Loop time of 0.354187 on 4 procs for 1000 steps with 1400 atoms, finish time Tue Mar 14 14:31:40 2023


Pair  time (%) = 0.127062 (35.8742)
Neigh time (%) = 0 (0)
Comm  time (%) = 0.0100231 (2.82988)
Outpt time (%) = 0.00507562 (1.43303)
Other time (%) = 0.212027 (59.8629)

Nlocal:    350 ave 838 max 0 min
Histogram: 2 0 0 0 0 0 1 0 0 1
Nghost:    552.5 ave 1246 max 0 min
Histogram: 2 0 0 0 0 0 0 1 0 1
Neighs:    7800.5 ave 18613 max 0 min
Histogram: 2 0 0 0 0 0 1 0 0 1

Total # of neighbors = 31202
Ave neighs/atom = 22.2871
Neighbor list builds = 0
Dangerous builds = 0
Executing command: 'write_restart ../DEM/liggghts.restartCFDEM'
System init for write_restart ...
LIGGGHTS finished

 timeStepFraction() = 1
[3] cellI = 40
[3] index = 1
[3] Us = (3.12535e-06 3.28368e-06 9.896e-07)
[3] Ur = (-3.60678e-06 1.47324e-06 -0.00147353)
[3] dprim = 1
[3] phi = 1
[3] rho = 1
[3] nuf = 0.001
[3] voidfraction = 0.53768
[3] Rep = 0
[3] betaP = 0.131555
[3] drag = (-2.48443e-07 1.0148e-07 -0.0001015)
[0] cellI = 40
[0] index = 0
[0] Us = (2.1366e-06 9.52949e-07 -1.55215e-07)
[0] Ur = (-4.59443e-06 -6.76538e-06 -0.00172744)
[0] dprim = 1
[0] phi = 1
[0] rho = 1
[0] nuf = 0.001
[0] voidfraction = 0.559478
[0] Rep = 0
[0] betaP = 0.12113
[0] drag = (-2.91396e-07 -4.29084e-07 -0.00010956)

Solver level total Eulerian momentum exchange:
  TotalForceImp:  (0.00881295 -0.000148551 0.349175)
  Warning, these values are based on latest Ksl and Us but prev. iteration U!

DILUPBiCG:  Solving for Ux, Initial residual = 0.217187, Final residual = 2.2669e-05, No Iterations 1
DILUPBiCG:  Solving for Uy, Initial residual = 0.0924035, Final residual = 1.32958e-05, No Iterations 1
DILUPBiCG:  Solving for Uz, Initial residual = 0.00311329, Final residual = 8.187e-07, No Iterations 1
DICPCG:  Solving for p, Initial residual = 0.000329215, Final residual = 2.94458e-05, No Iterations 1
DICPCG:  Solving for p, Initial residual = 2.94462e-05, Final residual = 1.66814e-06, No Iterations 23
time step continuity errors : sum local = 3.11307e-08, global = -8.54874e-11, cumulative = -1.47776e-09
DICPCG:  Solving for p, Initial residual = 6.08362e-06, Final residual = 8.2586e-07, No Iterations 1
DICPCG:  Solving for p, Initial residual = 8.25862e-07, Final residual = 8.25862e-07, No Iterations 0
time step continuity errors : sum local = 1.53944e-08, global = -4.34987e-11, cumulative = -1.52126e-09
DICPCG:  Solving for p, Initial residual = 8.4681e-07, Final residual = 8.4681e-07, No Iterations 0
DICPCG:  Solving for p, Initial residual = 8.4681e-07, Final residual = 8.4681e-07, No Iterations 0
time step continuity errors : sum local = 1.57849e-08, global = -3.79527e-11, cumulative = -1.55921e-09
DICPCG:  Solving for p, Initial residual = 8.47221e-07, Final residual = 8.47221e-07, No Iterations 0
DICPCG:  Solving for p, Initial residual = 8.47221e-07, Final residual = 8.47221e-07, No Iterations 0
time step continuity errors : sum local = 1.57926e-08, global = -3.7864e-11, cumulative = -1.59707e-09
ExecutionTime = 7.04 s  ClockTime = 7 s

Time = 210

Courant Number mean: 0.010019 max: 0.0115766

 Coupling...
Starting up LIGGGHTS
Executing command: 'run 1000    '
Setting up run at Tue Mar 14 14:31:40 2023

Memory usage per processor = 7.06107 Mbytes
    Step    Atoms 
  370000     1400 
  371000     1400 
Loop time of 0.347589 on 4 procs for 1000 steps with 1400 atoms, finish time Tue Mar 14 14:31:41 2023


Pair  time (%) = 0.126306 (36.3379)
Neigh time (%) = 0 (0)
Comm  time (%) = 0.00999282 (2.8749)
Outpt time (%) = 0.000194372 (0.0559201)
Other time (%) = 0.211095 (60.7313)

Nlocal:    350 ave 838 max 0 min
Histogram: 2 0 0 0 0 0 1 0 0 1
Nghost:    552.75 ave 1247 max 0 min
Histogram: 2 0 0 0 0 0 0 1 0 1
Neighs:    7802.25 ave 18620 max 0 min
Histogram: 2 0 0 0 0 0 1 0 0 1

Total # of neighbors = 31209
Ave neighs/atom = 22.2921
Neighbor list builds = 0
Dangerous builds = 0
Executing command: 'write_restart ../DEM/liggghts.restartCFDEM'
System init for write_restart ...
LIGGGHTS finished

 timeStepFraction() = 1
[0] cellI = 40
[0] index = 0
[0] Us = (-2.51023e-06 -2.85503e-06 4.72939e-07)
[0] Ur = (1.63623e-06 -1.49218e-06 -0.00172657)
[0] dprim = 1
[0] phi = 1
[0] rho = 1
[0] nuf = 0.001
[0] voidfraction = 0.559477
[0] Rep = 0
[0] betaP = 0.121129
[0] drag = (1.03774e-07 -9.46386e-08 -0.000109504)
[3] cellI = 40
[3] index = 1
[3] Us = (-6.36421e-06 -2.50865e-06 -1.15357e-06)
[3] Ur = (6.97389e-06 8.00439e-06 -0.00147642)
[3] dprim = 1
[3] phi = 1
[3] rho = 1
[3] nuf = 0.001
[3] voidfraction = 0.537681
[3] Rep = 0
[3] betaP = 0.13156
[3] drag = (4.80393e-07 5.51378e-07 -0.000101702)

Solver level total Eulerian momentum exchange:
  TotalForceImp:  (-0.000974661 -0.0040676 0.34936)
  Warning, these values are based on latest Ksl and Us but prev. iteration U!

DILUPBiCG:  Solving for Ux, Initial residual = 0.2248, Final residual = 2.02538e-05, No Iterations 1
DILUPBiCG:  Solving for Uy, Initial residual = 0.104744, Final residual = 1.76223e-05, No Iterations 1
DILUPBiCG:  Solving for Uz, Initial residual = 0.00296028, Final residual = 7.36657e-07, No Iterations 1
DICPCG:  Solving for p, Initial residual = 0.000468359, Final residual = 2.52027e-05, No Iterations 1
DICPCG:  Solving for p, Initial residual = 2.52031e-05, Final residual = 2.29897e-06, No Iterations 12
time step continuity errors : sum local = 4.28528e-08, global = -1.33227e-08, cumulative = -1.49197e-08
DICPCG:  Solving for p, Initial residual = 7.72368e-06, Final residual = 9.30515e-07, No Iterations 20
DICPCG:  Solving for p, Initial residual = 9.30329e-07, Final residual = 9.30329e-07, No Iterations 0
time step continuity errors : sum local = 1.73444e-08, global = 1.95152e-09, cumulative = -1.29682e-08
DICPCG:  Solving for p, Initial residual = 9.55786e-07, Final residual = 9.55786e-07, No Iterations 0
DICPCG:  Solving for p, Initial residual = 9.55786e-07, Final residual = 9.55786e-07, No Iterations 0
time step continuity errors : sum local = 1.7819e-08, global = 2.20136e-09, cumulative = -1.07668e-08
DICPCG:  Solving for p, Initial residual = 9.56402e-07, Final residual = 9.56402e-07, No Iterations 0
DICPCG:  Solving for p, Initial residual = 9.56402e-07, Final residual = 9.56402e-07, No Iterations 0
time step continuity errors : sum local = 1.78305e-08, global = 2.20642e-09, cumulative = -8.56042e-09
ExecutionTime = 7.39 s  ClockTime = 8 s

Time = 220

Courant Number mean: 0.0100195 max: 0.0115645

 Coupling...
Starting up LIGGGHTS
Executing command: 'run 1000    '
Setting up run at Tue Mar 14 14:31:41 2023

Memory usage per processor = 7.06107 Mbytes
    Step    Atoms 
  371000     1400 
  372000     1400 
Loop time of 0.350023 on 4 procs for 1000 steps with 1400 atoms, finish time Tue Mar 14 14:31:41 2023


Pair  time (%) = 0.127091 (36.3092)
Neigh time (%) = 0 (0)
Comm  time (%) = 0.0100474 (2.8705)
Outpt time (%) = 0.000195675 (0.0559035)
Other time (%) = 0.21269 (60.7644)

Nlocal:    350 ave 838 max 0 min
Histogram: 2 0 0 0 0 0 1 0 0 1
Nghost:    552.75 ave 1247 max 0 min
Histogram: 2 0 0 0 0 0 0 1 0 1
Neighs:    7804 ave 18627 max 0 min
Histogram: 2 0 0 0 0 0 1 0 0 1

Total # of neighbors = 31216
Ave neighs/atom = 22.2971
Neighbor list builds = 0
Dangerous builds = 0
Executing command: 'write_restart ../DEM/liggghts.restartCFDEM'
System init for write_restart ...
LIGGGHTS finished

 timeStepFraction() = 1
[0] cellI = 40
[0] index = 0
[0] Us = (-2.94384e-08 1.43692e-06 -3.18399e-07)
[0] Ur = (-4.3554e-06 -6.85326e-06 -0.00172849)
[0] dprim = 1
[0] phi = 1
[0] rho = 1
[0] nuf = 0.001
[0] voidfraction = 0.559478
[0] Rep = 0
[0] betaP = 0.121132
[0] drag = (-2.7624e-07 -4.34665e-07 -0.000109629)
[3] cellI = 40
[3] index = 1
[3] Us = (2.30151e-06 8.58351e-07 5.71572e-07)
[3] Ur = (-4.2057e-06 2.6408e-06 -0.00147285)
[3] dprim = 1
[3] phi = 1
[3] rho = 1
[3] nuf = 0.001
[3] voidfraction = 0.53768
[3] Rep = 0
[3] betaP = 0.131554
[3] drag = (-2.89695e-07 1.81902e-07 -0.000101452)

Solver level total Eulerian momentum exchange:
  TotalForceImp:  (0.00858958 -0.00054428 0.349804)
  Warning, these values are based on latest Ksl and Us but prev. iteration U!

DILUPBiCG:  Solving for Ux, Initial residual = 0.189916, Final residual = 2.12099e-05, No Iterations 1
DILUPBiCG:  Solving for Uy, Initial residual = 0.0780397, Final residual = 1.00449e-05, No Iterations 1
DILUPBiCG:  Solving for Uz, Initial residual = 0.00466888, Final residual = 1.04342e-06, No Iterations 1
[...]

Courant Number mean: 0.0100237 max: 0.0116032

 Coupling...
Starting up LIGGGHTS
Executing command: 'run 1000    '
Setting up run at Tue Mar 14 14:32:07 2023

Memory usage per processor = 7.06107 Mbytes
    Step    Atoms 
  444000     1400 
  445000     1400 
Loop time of 0.354608 on 4 procs for 1000 steps with 1400 atoms, finish time Tue Mar 14 14:32:07 2023


Pair  time (%) = 0.128176 (36.1459)
Neigh time (%) = 0 (0)
Comm  time (%) = 0.01002 (2.82567)
Outpt time (%) = 0.000197965 (0.0558264)
Other time (%) = 0.216214 (60.9726)

Nlocal:    350 ave 838 max 0 min
Histogram: 2 0 0 0 0 0 1 0 0 1
Nghost:    552.75 ave 1247 max 0 min
Histogram: 2 0 0 0 0 0 0 1 0 1
Neighs:    7820.5 ave 18691 max 0 min
Histogram: 2 0 0 0 0 0 1 0 0 1

Total # of neighbors = 31282
Ave neighs/atom = 22.3443
Neighbor list builds = 0
Dangerous builds = 0
Executing command: 'write_restart ../DEM/liggghts.restartCFDEM'
System init for write_restart ...
LIGGGHTS finished

 timeStepFraction() = 1
[3] cellI = 40
[3] index = 1
[3] Us = (-1.70122e-06 -1.00473e-05 -7.72079e-10)
[3] Ur = (2.09015e-06 1.25046e-05 -0.00147071)
[3] dprim = 1
[3] phi = 1
[3] rho = 1
[3] nuf = 0.001
[3] voidfraction = 0.537682
[3] Rep = 0
[3] betaP = 0.131549
[3] drag = (1.43968e-07 8.61303e-07 -0.000101301)
[0] cellI = 40
[0] index = 0
[0] Us = (8.48873e-07 -7.37802e-06 1.62617e-06)
[0] Ur = (-1.61449e-06 8.19236e-06 -0.00172415)
[0] dprim = 1
[0] phi = 1
[0] rho = 1
[0] nuf = 0.001
[0] voidfraction = 0.559479
[0] Rep = 0
[0] betaP = 0.121124
[0] drag = (-1.02392e-07 5.19563e-07 -0.000109346)

Solver level total Eulerian momentum exchange:
  TotalForceImp:  (0.00257669 -0.0131221 0.351098)
  Warning, these values are based on latest Ksl and Us but prev. iteration U!

DILUPBiCG:  Solving for Ux, Initial residual = 0.0771174, Final residual = 6.38783e-06, No Iterations 1
DILUPBiCG:  Solving for Uy, Initial residual = 0.383161, Final residual = 3.30012e-05, No Iterations 1
DILUPBiCG:  Solving for Uz, Initial residual = 0.00310532, Final residual = 1.63624e-07, No Iterations 1
DICPCG:  Solving for p, Initial residual = 0.000558907, Final residual = 1.90517e-05, No Iterations 1
DICPCG:  Solving for p, Initial residual = 1.90523e-05, Final residual = 1.72154e-06, No Iterations 23
time step continuity errors : sum local = 3.22168e-08, global = -2.89053e-10, cumulative = 4.96105e-08
DICPCG:  Solving for p, Initial residual = 1.29997e-05, Final residual = 7.23741e-07, No Iterations 1
DICPCG:  Solving for p, Initial residual = 7.23742e-07, Final residual = 7.23742e-07, No Iterations 0
time step continuity errors : sum local = 1.35541e-08, global = -1.93506e-10, cumulative = 4.9417e-08
DICPCG:  Solving for p, Initial residual = 7.36002e-07, Final residual = 7.36002e-07, No Iterations 0
DICPCG:  Solving for p, Initial residual = 7.36002e-07, Final residual = 7.36002e-07, No Iterations 0
time step continuity errors : sum local = 1.37837e-08, global = -1.99221e-10, cumulative = 4.92177e-08
DICPCG:  Solving for p, Initial residual = 7.36223e-07, Final residual = 7.36223e-07, No Iterations 0
DICPCG:  Solving for p, Initial residual = 7.36223e-07, Final residual = 7.36223e-07, No Iterations 0
time step continuity errors : sum local = 1.37878e-08, global = -1.99311e-10, cumulative = 4.90184e-08
ExecutionTime = 34.09 s  ClockTime = 34 s

Time = 960

Courant Number mean: 0.0100236 max: 0.0115627

 Coupling...
Starting up LIGGGHTS
Executing command: 'run 1000    '
Setting up run at Tue Mar 14 14:32:07 2023

Memory usage per processor = 7.06107 Mbytes
    Step    Atoms 
  445000     1400 
  446000     1400 
Loop time of 0.353904 on 4 procs for 1000 steps with 1400 atoms, finish time Tue Mar 14 14:32:08 2023


Pair  time (%) = 0.128046 (36.1809)
Neigh time (%) = 0 (0)
Comm  time (%) = 0.0100295 (2.83395)
Outpt time (%) = 0.000197539 (0.055817)
Other time (%) = 0.215632 (60.9293)

Nlocal:    350 ave 838 max 0 min
Histogram: 2 0 0 0 0 0 1 0 0 1
Nghost:    552.75 ave 1247 max 0 min
Histogram: 2 0 0 0 0 0 0 1 0 1
Neighs:    7820.75 ave 18692 max 0 min
Histogram: 2 0 0 0 0 0 1 0 0 1

Total # of neighbors = 31283
Ave neighs/atom = 22.345
Neighbor list builds = 0
Dangerous builds = 0
Executing command: 'write_restart ../DEM/liggghts.restartCFDEM'
System init for write_restart ...
LIGGGHTS finished

 timeStepFraction() = 1
[0] cellI = 40
[0] index = 0
[0] Us = (-4.31361e-07 7.50948e-06 -1.65147e-06)
[0] Ur = (-6.14327e-07 -1.10864e-05 -0.00172621)
[0] dprim = 1
[0] phi = 1
[0] rho = 1
[0] nuf = 0.001
[0] voidfraction = 0.559479
[0] Rep = 0
[0] betaP = 0.121128
[0] drag = (-3.8962e-08 -7.03126e-07 -0.00010948)
[3] cellI = 40
[3] index = 1
[3] Us = (1.58754e-06 1.07318e-05 9.74295e-09)
[3] Ur = (-1.73234e-06 -1.28847e-05 -0.00146938)
[3] dprim = 1
[3] phi = 1
[3] rho = 1
[3] nuf = 0.001
[3] voidfraction = 0.537681
[3] Rep = 0
[3] betaP = 0.131547
[3] drag = (-1.1932e-07 -8.87468e-07 -0.000101208)

Solver level total Eulerian momentum exchange:
  TotalForceImp:  (0.00621129 0.0102163 0.351187)
  Warning, these values are based on latest Ksl and Us but prev. iteration U!

DILUPBiCG:  Solving for Ux, Initial residual = 0.0711542, Final residual = 6.61605e-06, No Iterations 1
DILUPBiCG:  Solving for Uy, Initial residual = 0.38183, Final residual = 3.37528e-05, No Iterations 1
DILUPBiCG:  Solving for Uz, Initial residual = 0.00318368, Final residual = 1.51096e-07, No Iterations 1
DICPCG:  Solving for p, Initial residual = 0.000568331, Final residual = 1.53947e-05, No Iterations 1
DICPCG:  Solving for p, Initial residual = 1.53945e-05, Final residual = 8.21231e-07, No Iterations 22
time step continuity errors : sum local = 1.53804e-08, global = 7.94102e-10, cumulative = 4.98125e-08
DICPCG:  Solving for p, Initial residual = 1.29731e-05, Final residual = 5.50017e-07, No Iterations 1
DICPCG:  Solving for p, Initial residual = 5.50018e-07, Final residual = 5.50018e-07, No Iterations 0
time step continuity errors : sum local = 1.02989e-08, global = 4.41338e-10, cumulative = 5.02539e-08
DICPCG:  Solving for p, Initial residual = 5.61724e-07, Final residual = 5.61724e-07, No Iterations 0
DICPCG:  Solving for p, Initial residual = 5.61724e-07, Final residual = 5.61724e-07, No Iterations 0
time step continuity errors : sum local = 1.05181e-08, global = 4.36848e-10, cumulative = 5.06907e-08
DICPCG:  Solving for p, Initial residual = 5.62203e-07, Final residual = 5.62203e-07, No Iterations 0
DICPCG:  Solving for p, Initial residual = 5.62203e-07, Final residual = 5.62203e-07, No Iterations 0
time step continuity errors : sum local = 1.05271e-08, global = 4.36764e-10, cumulative = 5.11275e-08
ExecutionTime = 34.45 s  ClockTime = 35 s

Time = 970

Courant Number mean: 0.0100238 max: 0.0116028

 Coupling...
Starting up LIGGGHTS
Executing command: 'run 1000    '
Setting up run at Tue Mar 14 14:32:08 2023

Memory usage per processor = 7.06107 Mbytes
    Step    Atoms 
  446000     1400 
  447000     1400 
Loop time of 0.353457 on 4 procs for 1000 steps with 1400 atoms, finish time Tue Mar 14 14:32:08 2023


Pair  time (%) = 0.127916 (36.19)
Neigh time (%) = 0 (0)
Comm  time (%) = 0.0100582 (2.84567)
Outpt time (%) = 0.00021992 (0.0622197)
Other time (%) = 0.215263 (60.9021)

Nlocal:    350 ave 838 max 0 min
Histogram: 2 0 0 0 0 0 1 0 0 1
Nghost:    552.75 ave 1247 max 0 min
Histogram: 2 0 0 0 0 0 0 1 0 1
Neighs:    7821 ave 18693 max 0 min
Histogram: 2 0 0 0 0 0 1 0 0 1

Total # of neighbors = 31284
Ave neighs/atom = 22.3457
Neighbor list builds = 0
Dangerous builds = 0
Executing command: 'write_restart ../DEM/liggghts.restartCFDEM'
System init for write_restart ...
LIGGGHTS finished

 timeStepFraction() = 1
[3] cellI = 40
[3] index = 1
[3] Us = (-7.91928e-07 -1.14435e-05 4.79413e-07)
[3] Ur = (9.90942e-07 1.38827e-05 -0.0014712)
[3] dprim = 1
[3] phi = 1
[3] rho = 1
[3] nuf = 0.001
[3] voidfraction = 0.537682
[3] Rep = 0
[3] betaP = 0.13155
[3] drag = (6.82555e-08 9.56231e-07 -0.000101335)
[0] cellI = 40
[0] index = 0
[0] Us = (3.44708e-06 -9.41101e-06 2.01509e-06)
[0] Ur = (-4.31364e-06 1.04532e-05 -0.00172447)
[0] dprim = 1
[0] phi = 1
[0] rho = 1
[0] nuf = 0.001
[0] voidfraction = 0.559478
[0] Rep = 0
[0] betaP = 0.121125
[0] drag = (-2.73574e-07 6.6295e-07 -0.000109367)

Solver level total Eulerian momentum exchange:
  TotalForceImp:  (0.00304266 -0.0137207 0.351632)
  Warning, these values are based on latest Ksl and Us but prev. iteration U!

DILUPBiCG:  Solving for Ux, Initial residual = 0.0614355, Final residual = 6.33268e-06, No Iterations 1
DILUPBiCG:  Solving for Uy, Initial residual = 0.395669, Final residual = 3.49676e-05, No Iterations 1
DILUPBiCG:  Solving for Uz, Initial residual = 0.00340243, Final residual = 2.5127e-07, No Iterations 1
DICPCG:  Solving for p, Initial residual = 0.00059496, Final residual = 3.03112e-05, No Iterations 1
DICPCG:  Solving for p, Initial residual = 3.03121e-05, Final residual = 2.36486e-06, No Iterations 23
time step continuity errors : sum local = 4.42806e-08, global = 3.34633e-10, cumulative = 5.14621e-08
DICPCG:  Solving for p, Initial residual = 1.41504e-05, Final residual = 1.07401e-06, No Iterations 1
DICPCG:  Solving for p, Initial residual = 1.07401e-06, Final residual = 6.88833e-07, No Iterations 1
time step continuity errors : sum local = 1.29171e-08, global = -4.91122e-11, cumulative = 5.1413e-08
DICPCG:  Solving for p, Initial residual = 6.88584e-07, Final residual = 6.88584e-07, No Iterations 0
DICPCG:  Solving for p, Initial residual = 6.88584e-07, Final residual = 6.88584e-07, No Iterations 0
time step continuity errors : sum local = 1.29125e-08, global = -6.78432e-11, cumulative = 5.13452e-08
DICPCG:  Solving for p, Initial residual = 6.88733e-07, Final residual = 6.88733e-07, No Iterations 0
DICPCG:  Solving for p, Initial residual = 6.88733e-07, Final residual = 6.88733e-07, No Iterations 0
time step continuity errors : sum local = 1.29153e-08, global = -6.81589e-11, cumulative = 5.1277e-08
ExecutionTime = 34.81 s  ClockTime = 35 s

Time = 980

Courant Number mean: 0.0100237 max: 0.0115608

 Coupling...
Starting up LIGGGHTS
Executing command: 'run 1000    '
Setting up run at Tue Mar 14 14:32:08 2023

Memory usage per processor = 7.06107 Mbytes
    Step    Atoms 
  447000     1400 
  448000     1400 
Loop time of 0.354902 on 4 procs for 1000 steps with 1400 atoms, finish time Tue Mar 14 14:32:09 2023


Pair  time (%) = 0.128162 (36.112)
Neigh time (%) = 0 (0)
Comm  time (%) = 0.0100345 (2.82741)
Outpt time (%) = 0.000199067 (0.0560908)
Other time (%) = 0.216506 (61.0045)

Nlocal:    350 ave 838 max 0 min
Histogram: 2 0 0 0 0 0 1 0 0 1
Nghost:    552.75 ave 1247 max 0 min
Histogram: 2 0 0 0 0 0 0 1 0 1
Neighs:    7821 ave 18693 max 0 min
Histogram: 2 0 0 0 0 0 1 0 0 1

Total # of neighbors = 31284
Ave neighs/atom = 22.3457
Neighbor list builds = 0
Dangerous builds = 0
Executing command: 'write_restart ../DEM/liggghts.restartCFDEM'
System init for write_restart ...
LIGGGHTS finished

 timeStepFraction() = 1
[3] cellI = 40
[3] index = 1
[3] Us = (1.75042e-06 1.06116e-05 4.74239e-08)
[3] Ur = (-1.49348e-06 -1.33406e-05 -0.00146974)
[3] dprim = 1
[3] phi = 1
[3] rho = 1
[3] nuf = 0.001
[3] voidfraction = 0.537682
[3] Rep = 0
[3] betaP = 0.131548
[3] drag = (-1.02868e-07 -9.18874e-07 -0.000101233)
[0] cellI = 40
[0] index = 0
[0] Us = (-1.37162e-06 7.62408e-06 -1.60337e-06)
[0] Ur = (7.63014e-07 -1.17156e-05 -0.00172654)
[0] dprim = 1
[0] phi = 1
[0] rho = 1
[0] nuf = 0.001
[0] voidfraction = 0.559479
[0] Rep = 0
[0] betaP = 0.121128
[0] drag = (4.83923e-08 -7.43031e-07 -0.000109501)

Solver level total Eulerian momentum exchange:
  TotalForceImp:  (0.00597098 0.0106316 0.351417)
  Warning, these values are based on latest Ksl and Us but prev. iteration U!

DILUPBiCG:  Solving for Ux, Initial residual = 0.0589995, Final residual = 5.27159e-06, No Iterations 1
DILUPBiCG:  Solving for Uy, Initial residual = 0.391445, Final residual = 3.4105e-05, No Iterations 1
DILUPBiCG:  Solving for Uz, Initial residual = 0.00323877, Final residual = 2.03449e-07, No Iterations 1
DICPCG:  Solving for p, Initial residual = 0.000590624, Final residual = 2.0907e-05, No Iterations 1
DICPCG:  Solving for p, Initial residual = 2.09068e-05, Final residual = 1.48571e-06, No Iterations 23
time step continuity errors : sum local = 2.78605e-08, global = 1.40103e-10, cumulative = 5.14171e-08
DICPCG:  Solving for p, Initial residual = 1.39728e-05, Final residual = 7.56715e-07, No Iterations 1
DICPCG:  Solving for p, Initial residual = 7.56716e-07, Final residual = 7.56716e-07, No Iterations 0
time step continuity errors : sum local = 1.41777e-08, global = 1.2594e-10, cumulative = 5.15431e-08
DICPCG:  Solving for p, Initial residual = 7.71189e-07, Final residual = 7.71189e-07, No Iterations 0
DICPCG:  Solving for p, Initial residual = 7.71189e-07, Final residual = 7.71189e-07, No Iterations 0
time step continuity errors : sum local = 1.44489e-08, global = 1.32557e-10, cumulative = 5.16756e-08
DICPCG:  Solving for p, Initial residual = 7.71721e-07, Final residual = 7.71721e-07, No Iterations 0
DICPCG:  Solving for p, Initial residual = 7.71721e-07, Final residual = 7.71721e-07, No Iterations 0
time step continuity errors : sum local = 1.44589e-08, global = 1.32667e-10, cumulative = 5.18083e-08
ExecutionTime = 35.17 s  ClockTime = 36 s

Time = 990

Courant Number mean: 0.0100239 max: 0.0116018

 Coupling...
Starting up LIGGGHTS
Executing command: 'run 1000    '
Setting up run at Tue Mar 14 14:32:09 2023

Memory usage per processor = 7.06107 Mbytes
    Step    Atoms 
  448000     1400 
  449000     1400 
Loop time of 0.354925 on 4 procs for 1000 steps with 1400 atoms, finish time Tue Mar 14 14:32:09 2023


Pair  time (%) = 0.128552 (36.2194)
Neigh time (%) = 0 (0)
Comm  time (%) = 0.0100337 (2.82698)
Outpt time (%) = 0.000197472 (0.0556377)
Other time (%) = 0.216142 (60.8979)

Nlocal:    350 ave 838 max 0 min
Histogram: 2 0 0 0 0 0 1 0 0 1
Nghost:    552.75 ave 1247 max 0 min
Histogram: 2 0 0 0 0 0 0 1 0 1
Neighs:    7821 ave 18693 max 0 min
Histogram: 2 0 0 0 0 0 1 0 0 1

Total # of neighbors = 31284
Ave neighs/atom = 22.3457
Neighbor list builds = 0
Dangerous builds = 0
Executing command: 'write_restart ../DEM/liggghts.restartCFDEM'
System init for write_restart ...
LIGGGHTS finished

 timeStepFraction() = 1
[0] cellI = 40
[0] index = 0
[0] Us = (9.58496e-07 -7.92753e-06 1.65363e-06)
[0] Ur = (-1.69855e-06 8.76869e-06 -0.00172429)
[0] dprim = 1
[0] phi = 1
[0] rho = 1
[0] nuf = 0.001
[0] voidfraction = 0.559479
[0] Rep = 0
[0] betaP = 0.121124
[0] drag = (-1.07723e-07 5.56115e-07 -0.000109355)
[3] cellI = 40
[3] index = 1
[3] Us = (-1.46188e-06 -1.08445e-05 5.77161e-08)
[3] Ur = (1.77259e-06 1.30127e-05 -0.00147082)
[3] dprim = 1
[3] phi = 1
[3] rho = 1
[3] nuf = 0.001
[3] voidfraction = 0.537682
[3] Rep = 0
[3] betaP = 0.131549
[3] drag = (1.22094e-07 8.96302e-07 -0.000101308)

Solver level total Eulerian momentum exchange:
  TotalForceImp:  (0.003303 -0.0140108 0.351059)
  Warning, these values are based on latest Ksl and Us but prev. iteration U!

DILUPBiCG:  Solving for Ux, Initial residual = 0.0532764, Final residual = 4.87477e-06, No Iterations 1
DILUPBiCG:  Solving for Uy, Initial residual = 0.399794, Final residual = 3.58556e-05, No Iterations 1
DILUPBiCG:  Solving for Uz, Initial residual = 0.0034355, Final residual = 2.18391e-07, No Iterations 1
DICPCG:  Solving for p, Initial residual = 0.000600862, Final residual = 1.98863e-05, No Iterations 1
DICPCG:  Solving for p, Initial residual = 1.9886e-05, Final residual = 7.76046e-07, No Iterations 23
time step continuity errors : sum local = 1.45401e-08, global = 9.95163e-12, cumulative = 5.18182e-08
DICPCG:  Solving for p, Initial residual = 1.36376e-05, Final residual = 5.31113e-07, No Iterations 1
DICPCG:  Solving for p, Initial residual = 5.31114e-07, Final residual = 5.31114e-07, No Iterations 0
time step continuity errors : sum local = 9.94552e-09, global = 3.22318e-11, cumulative = 5.18505e-08
DICPCG:  Solving for p, Initial residual = 5.41255e-07, Final residual = 5.41255e-07, No Iterations 0
DICPCG:  Solving for p, Initial residual = 5.41255e-07, Final residual = 5.41255e-07, No Iterations 0
time step continuity errors : sum local = 1.01354e-08, global = 3.57294e-11, cumulative = 5.18862e-08
DICPCG:  Solving for p, Initial residual = 5.41893e-07, Final residual = 5.41893e-07, No Iterations 0
DICPCG:  Solving for p, Initial residual = 5.41893e-07, Final residual = 5.41893e-07, No Iterations 0
time step continuity errors : sum local = 1.01474e-08, global = 3.57895e-11, cumulative = 5.1922e-08
ExecutionTime = 35.53 s  ClockTime = 36 s

Time = 1000

Courant Number mean: 0.0100236 max: 0.0115532

 Coupling...
Starting up LIGGGHTS
Executing command: 'run 1000    '
Setting up run at Tue Mar 14 14:32:09 2023

Memory usage per processor = 7.06107 Mbytes
    Step    Atoms 
  449000     1400 
  450000     1400 
Loop time of 0.359342 on 4 procs for 1000 steps with 1400 atoms, finish time Tue Mar 14 14:32:09 2023


Pair  time (%) = 0.128292 (35.7021)
Neigh time (%) = 0 (0)
Comm  time (%) = 0.0101129 (2.81429)
Outpt time (%) = 0.00504085 (1.4028)
Other time (%) = 0.215896 (60.0809)

Nlocal:    350 ave 838 max 0 min
Histogram: 2 0 0 0 0 0 1 0 0 1
Nghost:    552.75 ave 1247 max 0 min
Histogram: 2 0 0 0 0 0 0 1 0 1
Neighs:    7820.75 ave 18692 max 0 min
Histogram: 2 0 0 0 0 0 1 0 0 1

Total # of neighbors = 31283
Ave neighs/atom = 22.345
Neighbor list builds = 0
Dangerous builds = 0
Executing command: 'write_restart ../DEM/liggghts.restartCFDEM'
System init for write_restart ...
LIGGGHTS finished

 timeStepFraction() = 1
[3] cellI = 40
[3] index = 1
[3] Us = (1.11493e-06 1.17417e-05 -2.86212e-07)
[3] Ur = (-1.26364e-06 -1.43335e-05 -0.00146968)
[3] dprim = 1
[3] phi = 1
[3] rho = 1
[3] nuf = 0.001
[3] voidfraction = 0.537682
[3] Rep = 0
[3] betaP = 0.131548
[3] drag = (-8.70371e-08 -9.87265e-07 -0.000101229)
[0] cellI = 40
[0] index = 0
[0] Us = (-1.04686e-06 8.76879e-06 -1.94429e-06)
[0] Ur = (-2.21739e-08 -1.25858e-05 -0.0017262)
[0] dprim = 1
[0] phi = 1
[0] rho = 1
[0] nuf = 0.001
[0] voidfraction = 0.559479
[0] Rep = 0
[0] betaP = 0.121128
[0] drag = (-1.40632e-09 -7.98222e-07 -0.00010948)

Solver level total Eulerian momentum exchange:
  TotalForceImp:  (0.00581307 0.0110716 0.351233)
  Warning, these values are based on latest Ksl and Us but prev. iteration U!

DILUPBiCG:  Solving for Ux, Initial residual = 0.050942, Final residual = 4.99929e-06, No Iterations 1
DILUPBiCG:  Solving for Uy, Initial residual = 0.402323, Final residual = 3.54594e-05, No Iterations 1
DILUPBiCG:  Solving for Uz, Initial residual = 0.00327902, Final residual = 1.95883e-07, No Iterations 1
DICPCG:  Solving for p, Initial residual = 0.000621006, Final residual = 2.22361e-05, No Iterations 1
DICPCG:  Solving for p, Initial residual = 2.22366e-05, Final residual = 1.57887e-06, No Iterations 3
time step continuity errors : sum local = 2.95652e-08, global = 1.58909e-11, cumulative = 5.19379e-08
DICPCG:  Solving for p, Initial residual = 1.3984e-05, Final residual = 1.2951e-06, No Iterations 1
DICPCG:  Solving for p, Initial residual = 1.2951e-06, Final residual = 9.85069e-07, No Iterations 9
time step continuity errors : sum local = 1.84457e-08, global = -7.2065e-09, cumulative = 4.47314e-08
DICPCG:  Solving for p, Initial residual = 1.02026e-06, Final residual = 6.24139e-07, No Iterations 1
DICPCG:  Solving for p, Initial residual = 6.24139e-07, Final residual = 6.24139e-07, No Iterations 0
time step continuity errors : sum local = 1.16872e-08, global = -7.35999e-09, cumulative = 3.73714e-08
DICPCG:  Solving for p, Initial residual = 6.30965e-07, Final residual = 6.30965e-07, No Iterations 0
DICPCG:  Solving for p, Initial residual = 6.30965e-07, Final residual = 6.30965e-07, No Iterations 0
time step continuity errors : sum local = 1.1815e-08, global = -7.36092e-09, cumulative = 3.00105e-08
ExecutionTime = 35.9 s  ClockTime = 36 s

End

Finalising parallel run
