
//   CFDEM_run   //

/home/pse/Filtration_Simulator/examples/uniform/CFDEM/CFD

/*---------------------------------------------------------------------------*\
| =========                 |                                                 |
| \\      /  F ield         | OpenFOAM: The Open Source CFD Toolbox           |
|  \\    /   O peration     | Version:  5.x                                   |
|   \\  /    A nd           | Web:      www.OpenFOAM.org                      |
|    \\/     M anipulation  |                                                 |
\*---------------------------------------------------------------------------*/
Build  : 5.x-7f7d351b741b
Exec   : cfdemSolverPiso -parallel
Date   : Mar 15 2023
Time   : 13:36:55
Host   : "CFDEM1"
PID    : 204573
I/O    : uncollated
Case   : /home/pse/Filtration_Simulator/examples/uniform/CFDEM/CFD
nProcs : 4
Slaves : 
3
(
"CFDEM1.204574"
"CFDEM1.204575"
"CFDEM1.204576"
)

Pstream initialized with:
    floatTransfer      : 0
    nProcsSimpleSum    : 0
    commsType          : nonBlocking
    polling iterations : 0
sigFpe : Enabling floating point exception trapping (FOAM_SIGFPE).
fileModificationChecking : Monitoring run-time modified files using timeStampMaster (fileModificationSkew 10)
allowSystemOperations : Allowing user-supplied system call operations

// * * * * * * * * * * * * * * * * * * * * * * * * * * * * * * * * * * * * * //
Create time

Overriding DimensionedConstants according to controlDict
    c [0 1 -1 0 0 0 0] 2.99792e+08
    G [-1 3 -2 0 0 0 0] 6.67429e-20
    h [1 2 -1 0 0 0 0] 6.62607e-13
    e [0 0 1 0 0 1 0] 1.60218e-07
    me [1 0 0 0 0 0 0] 9.10938e-19
    mp [1 0 0 0 0 0 0] 1.67262e-15
    mu [1 0 0 0 0 0 0] 1.66054e-15
    NA [0 0 0 0 -1 0 0] 6.02214e+23
    k [1 2 -2 -1 0 0 0] 1.38065e-08
    Pstd [1 -1 -2 0 0 0 0] 100
    Tstd [0 0 0 1 0 0 0] 298.15
    hr [1 2 -1 0 0 0 0] 1.05457e-13
    mu0 [1 1 -2 0 0 -2 0] 1.25664e-06
    epsilon0 [-1 -3 4 0 0 2 0] 8.85421e-12
    Z0 [1 2 -3 0 0 -2 0] 376.73
    kappa [1 3 -4 0 0 -2 0] 8.98752e+09
    G0 [-1 -2 3 0 0 2 0] 0.0774812
    KJ [-1 -2 2 0 0 1 0] 483599
    phi0 [1 2 -2 0 0 -1 0] 2.06783e-06
    RK [1 2 -3 0 0 -2 0] 25.8127
    alpha [0 0 0 0 0 0 0] 7.29737
    Rinf [0 -1 0 0 0 0 0] 10973.8
    a0 [0 1 0 0 0 0 0] 5.29177e-05
    re [0 1 0 0 0 0 0] 0.00281795
    Eh [1 2 -2 0 0 0 0] 4.35975
    R [1 2 -2 -1 -1 0 0] 8.31447e+15
    F [0 0 1 0 -1 1 0] 9.64856e+16
    sigma [1 0 -3 -4 0 0 0] 5.67041e-11
    b [0 1 0 1 0 0 0] 2897.77
    c1 [1 4 -3 0 0 0 0] 374176
    c2 [0 1 0 1 0 0 0] 14387.7
Create mesh for time = 0


PISO: Operating solver in PISO mode

Reading field p

Reading physical velocity field U
Note: only if voidfraction at boundary is 1, U is superficial velocity!!!


Reading momentum exchange field Ksl


Reading voidfraction field voidfraction = (Vgas/Vparticle)


Creating density field rho

Reading particle velocity field Us

Reading/calculating face flux field phi

Generating interstitial face flux field phiByVoidfraction

Selecting incompressible transport model Newtonian
Selecting turbulence model type laminar
Selecting laminar stress model Stokes
No finite volume options present


Reading g
Selecting locateModel engine
Selecting dataExchangeModel twoWayMPI
Starting up LIGGGHTS for first time execution
Executing input script '../DEM/liggghts_run.txt'
LIGGGHTS (Version LIGGGHTS-PUBLIC 3.8.0, compiled 2022-08-09-18:54:32 by pse, git commit 86544c3f1215bc9744d7929e3eacf53ba086af9e)
Reading restart file ...
WARNING: Restart file version does not match LIGGGHTS version (../read_restart.cpp:507)
   --> restart file = Version LIGGGHTS-PUBLIC 3.8.0, compiled 2022-08-09-18:52:33 by pse, git commit 86544c3f1215bc9744d7929e3eacf53ba086af9e
   --> LIGGGHTS = Version LIGGGHTS-PUBLIC 3.8.0, compiled 2022-08-09-18:54:32 by pse, git commit 86544c3f1215bc9744d7929e3eacf53ba086af9e
version 3 8
version 3 8
version 3 8
version 3 8
  orthogonal box = (-500 -500 -4000) to (500 500 5000)
  1 by 1 by 4 MPI processor grid
  167 atoms
INFO: mesh file (../DEM/stl_file/box.stl) is required, but data will be taken from restart file (../fix_mesh.cpp:417)
Resetting global state of Fix cad Style mesh/surface from restart file info
INFO: mesh file (../DEM/stl_file/inlet.stl) is required, but data will be taken from restart file (../fix_mesh.cpp:417)
Resetting global state of Fix inface Style mesh/surface from restart file info
Resetting global state of Fix n_neighs_mesh_cad Style property/atom from restart file info
Resetting per-atom state of Fix n_neighs_mesh_cad Style property/atom from restart file info
Resetting global state of Fix tracker_cad Style contacthistory/mesh from restart file info
Resetting per-atom state of Fix tracker_cad Style contacthistory/mesh from restart file info
167 atoms in group nve_group
couple_every as specified in LIGGGHTS is overriden by calling external program (../fix_cfd_coupling.cpp:114)
Resetting global state of Fix contacthistory Style contacthistory from restart file info
Resetting per-atom state of Fix contacthistory Style contacthistory from restart file info
Setting up run at Wed Mar 15 13:36:55 2023

Import and parallelization of mesh cad containing 2 triangle(s) successful
Import and parallelization of mesh inface containing 2 triangle(s) successful
Memory usage per processor = 6.77243 Mbytes
    Step    Atoms 
  350000      167 
Loop time of 2.0255e-06 on 4 procs for 0 steps with 167 atoms, finish time Wed Mar 15 13:36:55 2023


Pair  time (%) = 0 (0)
Neigh time (%) = 0 (0)
Comm  time (%) = 0 (0)
Outpt time (%) = 0 (0)
Other time (%) = 2.0255e-06 (100)

Nlocal:    41.75 ave 94 max 0 min
Histogram: 2 0 0 0 0 0 0 1 0 1
Nghost:    186.25 ave 384 max 0 min
Histogram: 2 0 0 0 0 0 0 0 0 2
Neighs:    1078.75 ave 2382 max 0 min
Histogram: 2 0 0 0 0 0 0 0 1 1

Total # of neighbors = 4315
Ave neighs/atom = 25.8383
Neighbor list builds = 0
Dangerous builds = 0
Selecting IOModel basicIO
Selecting probeModel off
Selecting voidFractionModel divided
Selecting averagingModel dense
Selecting clockModel off
start clock measurement at t >200
Selecting smoothingModel off
Selecting meshMotionModel noMeshMotion

CFDEMcoupling version: cfdem-3.8.1
, compatible to LIGGGHTS version: 3.8.0
, compatible to OF version and build: 5.x-commit-538044ac05c4672b37c7df607dca1116fa88df88

You are currently using:
OF version: 5.x
OF build: 5.x-7f7d351b741b
CFDEM build: 3.8.0-3-gb237264-dirty

cg is set to: 1
LIGGGHTS hosts 1 atom types.
If BC are important, please provide volScalarFields -imp/expParticleForces-
ignoring ddt(voidfraction)
Selecting momCoupleModel implicitCouple

implicit momentum exchange field calculate if alphaP larger than : 1
Selecting forceModel GidaspowDrag
 Selecting forceSubModel ImEx
 reading switches:
  looking for treatForceExplicit ...  not found in dict, using default. treatForceExplicit = false
  looking for implForceDEM ...  not found in dict, using default. implForceDEM = false
  looking for verbose ...  found in dict. verbose = true
  looking for interpolation ...  found in dict. interpolation = true
  looking for scalarViscosity ...  not found in dict, using default. scalarViscosity = false

--> FOAM Warning : Please make sure you use the new nomenclature for verbose force model settings, please have a look at the forceSubModel doc.
Selecting forceModel gradPForce
 Selecting forceSubModel ImEx
 reading switches:
  looking for treatForceExplicit ...  not found in dict, using default. treatForceExplicit = true
  looking for verbose ...  not found in dict, using default. verbose = false
  looking for interpolation ...  found in dict. interpolation = true

Selecting forceModel viscForce
 Selecting forceSubModel ImEx
 reading switches:
  looking for treatForceExplicit ...  not found in dict, using default. treatForceExplicit = true
  looking for verbose ...  not found in dict, using default. verbose = false
  looking for interpolation ...  found in dict. interpolation = true
  looking for scalarViscosity ...  not found in dict, using default. scalarViscosity = false

Selecting forceModel fieldStore
Creating field stored_U
Selecting liggghtsCommandModel runLiggghts ,provide dicts, numbered from 0 to n
Selecting liggghtsCommandModel writeLiggghts ,provide dicts, numbered from 0 to n
writeLiggghts: A restart file writeName_write_restart ../DEM/liggghts.restartCFDEM is written.
solving volume averaged Navier Stokes equations of type A
check if Archimedes lift is necessary (depends on pressure formulation)


Starting time loop

--> FOAM Warning : 
    From function void Foam::timeControl::read(const Foam::dictionary&)
    in file db/functionObjects/timeControl/timeControl.C at line 89
    Reading "/home/pse/Filtration_Simulator/examples/uniform/CFDEM/CFD/system/controlDict.functions.probes" from line 125 to line 137
    Using deprecated 'outputControl'
    Please use 'writeControl' with 'writeInterval'
Time = 100

Courant Number mean: 0.002 max: 0.002

 Coupling...
Starting up LIGGGHTS
Executing command: 'run 100    '
Setting up run at Wed Mar 15 13:36:55 2023

Memory usage per processor = 6.77243 Mbytes
    Step    Atoms 
  350000      167 
  350100      167 
Loop time of 0.00617979 on 4 procs for 100 steps with 167 atoms, finish time Wed Mar 15 13:36:55 2023


Pair  time (%) = 0.00183652 (29.7181)
Neigh time (%) = 0 (0)
Comm  time (%) = 0.00059645 (9.65162)
Outpt time (%) = 3.36515e-05 (0.544541)
Other time (%) = 0.00371317 (60.0857)

Nlocal:    41.75 ave 94 max 0 min
Histogram: 2 0 0 0 0 0 0 1 0 1
Nghost:    186.25 ave 384 max 0 min
Histogram: 2 0 0 0 0 0 0 0 0 2
Neighs:    1078.75 ave 2382 max 0 min
Histogram: 2 0 0 0 0 0 0 0 1 1

Total # of neighbors = 4315
Ave neighs/atom = 25.8383
Neighbor list builds = 0
Dangerous builds = 0
LIGGGHTS finished

 timeStepFraction() = 1
[3] cellI = 81
[3] index = 1
[3] Us = (4.35779e-10 2.56862e-10 2.72961e-11)
[3] Ur = (-4.35779e-10 -2.56862e-10 -0.001)
[3] dprim = 200
[3] phi = 1
[3] rho = 1
[0] cellI = 81
[0] index = 0
[0] Us = (3.39093e-10 2.5612e-10 1.52716e-11)
[0] Ur = (-3.39093e-10 -2.5612e-10 -0.001)
[0] dprim = 200
[0] phi = 1
[0] rho = 1
[0] nuf = 1
[0] voidfraction = 0.404839
[0] Rep = 0
[0] betaP = 0.0055217
[0] drag = (-7.84297e-06 -5.92385e-06 -23.1292)
[3] nuf = 1
[3] voidfraction = 0.425548
[3] Rep = 0
[3] betaP = 0.00507092
[3] drag = (-9.25639e-06 -5.45601e-06 -21.241)

Solver level total Eulerian momentum exchange:
  TotalForceImp:  (0.0110028 0.00855411 4262.94)
  Warning, these values are based on latest Ksl and Us but prev. iteration U!

DILUPBiCG:  Solving for Ux, Initial residual = 1, Final residual = 0.000172373, No Iterations 1
DILUPBiCG:  Solving for Uy, Initial residual = 1, Final residual = 0.000175048, No Iterations 1
DILUPBiCG:  Solving for Uz, Initial residual = 1, Final residual = 0.000155025, No Iterations 1
DICPCG:  Solving for p, Initial residual = 1, Final residual = 0.0490819, No Iterations 23
DICPCG:  Solving for p, Initial residual = 0.000758726, Final residual = 3.59849e-05, No Iterations 3
time step continuity errors : sum local = 7.76783e-08, global = -2.36492e-09, cumulative = -2.36492e-09
DICPCG:  Solving for p, Initial residual = 0.00112934, Final residual = 7.82012e-05, No Iterations 22
DICPCG:  Solving for p, Initial residual = 8.08686e-05, Final residual = 5.67595e-06, No Iterations 3
time step continuity errors : sum local = 1.18505e-08, global = 9.32088e-10, cumulative = -1.43283e-09
DICPCG:  Solving for p, Initial residual = 2.68347e-05, Final residual = 1.85485e-06, No Iterations 3
DICPCG:  Solving for p, Initial residual = 1.85486e-06, Final residual = 7.588e-07, No Iterations 1
time step continuity errors : sum local = 1.58415e-09, global = 3.63105e-10, cumulative = -1.06972e-09
DICPCG:  Solving for p, Initial residual = 1.6671e-06, Final residual = 6.125e-07, No Iterations 1
DICPCG:  Solving for p, Initial residual = 6.125e-07, Final residual = 6.125e-07, No Iterations 0
time step continuity errors : sum local = 1.27872e-09, global = 3.77623e-10, cumulative = -6.92099e-10
ExecutionTime = 0.04 s  ClockTime = 0 s

Time = 200

Courant Number mean: 0.0020028 max: 0.0022718

 Coupling...
Starting up LIGGGHTS
Executing command: 'run 100    '
Setting up run at Wed Mar 15 13:36:55 2023

Memory usage per processor = 6.77243 Mbytes
    Step    Atoms 
  350100      167 
  350200      167 
Loop time of 0.00615161 on 4 procs for 100 steps with 167 atoms, finish time Wed Mar 15 13:36:55 2023


Pair  time (%) = 0.00183181 (29.7778)
Neigh time (%) = 0 (0)
Comm  time (%) = 0.000588552 (9.56745)
Outpt time (%) = 3.2562e-05 (0.529325)
Other time (%) = 0.00369868 (60.1254)

Nlocal:    41.75 ave 94 max 0 min
Histogram: 2 0 0 0 0 0 0 1 0 1
Nghost:    186.25 ave 384 max 0 min
Histogram: 2 0 0 0 0 0 0 0 0 2
Neighs:    1078.75 ave 2382 max 0 min
Histogram: 2 0 0 0 0 0 0 0 1 1

Total # of neighbors = 4315
Ave neighs/atom = 25.8383
Neighbor list builds = 0
Dangerous builds = 0
LIGGGHTS finished

 timeStepFraction() = 1
[3] cellI = 81
[3] index = 1
[0] cellI = 81
[0] index = 0
[0] Us = (1.3772e-06 -1.74628e-06 -6.87504e-05)
[0] Ur = (-4.46659e-05 3.46537e-05 -0.00174994)
[0] dprim = 200
[0] phi = 1
[0] rho = 1
[0] nuf = 1
[3] Us = (3.27837e-07 5.70509e-06 -4.99191e-05)
[3] Ur = (-2.75346e-05 7.49762e-05 -0.00188059)
[3] dprim = 200
[3] phi = 1
[3] rho = 1
[3] nuf = 1
[0] voidfraction = 0.404789
[0] Rep = 0
[0] betaP = 0.00552941
[3] voidfraction = 0.425513
[3] Rep = 0
[3] betaP = 0.00507937
[0] drag = (-1.03453 0.802633 -40.5313)
[3] drag = (-0.585837 1.59523 -40.0122)

Solver level total Eulerian momentum exchange:
  TotalForceImp:  (-15.6 135.335 9652.19)
  Warning, these values are based on latest Ksl and Us but prev. iteration U!

DILUPBiCG:  Solving for Ux, Initial residual = 0.22888, Final residual = 7.13711e-05, No Iterations 1
DILUPBiCG:  Solving for Uy, Initial residual = 0.21853, Final residual = 8.58794e-05, No Iterations 1
DILUPBiCG:  Solving for Uz, Initial residual = 0.144, Final residual = 3.99126e-05, No Iterations 1
DICPCG:  Solving for p, Initial residual = 0.00956606, Final residual = 0.000436216, No Iterations 23
DICPCG:  Solving for p, Initial residual = 0.000765814, Final residual = 5.11881e-05, No Iterations 3
time step continuity errors : sum local = 6.10184e-08, global = 1.73787e-09, cumulative = 1.04578e-09
DICPCG:  Solving for p, Initial residual = 0.00107893, Final residual = 5.69769e-05, No Iterations 22
DICPCG:  Solving for p, Initial residual = 5.54754e-05, Final residual = 3.71012e-06, No Iterations 3
time step continuity errors : sum local = 4.53724e-09, global = -3.26032e-10, cumulative = 7.19744e-10
DICPCG:  Solving for p, Initial residual = 2.15205e-05, Final residual = 1.70289e-06, No Iterations 3
DICPCG:  Solving for p, Initial residual = 1.7029e-06, Final residual = 8.99342e-07, No Iterations 1
time step continuity errors : sum local = 1.09982e-09, global = -1.86357e-10, cumulative = 5.33387e-10
DICPCG:  Solving for p, Initial residual = 1.54026e-06, Final residual = 8.52278e-07, No Iterations 1
DICPCG:  Solving for p, Initial residual = 8.52278e-07, Final residual = 8.52278e-07, No Iterations 0
time step continuity errors : sum local = 1.04227e-09, global = -2.00145e-10, cumulative = 3.33243e-10
ExecutionTime = 0.05 s  ClockTime = 0 s

Time = 300

Courant Number mean: 0.00200326 max: 0.00235102

 Coupling...
Starting up LIGGGHTS
Executing command: 'run 100    '
Setting up run at Wed Mar 15 13:36:55 2023

Memory usage per processor = 6.77243 Mbytes
    Step    Atoms 
  350200      167 
  350300      167 
Loop time of 0.00618518 on 4 procs for 100 steps with 167 atoms, finish time Wed Mar 15 13:36:55 2023


Pair  time (%) = 0.00183832 (29.7214)
Neigh time (%) = 0 (0)
Comm  time (%) = 0.000582001 (9.40961)
Outpt time (%) = 3.18918e-05 (0.515615)
Other time (%) = 0.00373297 (60.3534)

Nlocal:    41.75 ave 94 max 0 min
Histogram: 2 0 0 0 0 0 0 1 0 1
Nghost:    186.25 ave 384 max 0 min
Histogram: 2 0 0 0 0 0 0 0 0 2
Neighs:    1078.75 ave 2382 max 0 min
Histogram: 2 0 0 0 0 0 0 0 1 1

Total # of neighbors = 4315
Ave neighs/atom = 25.8383
Neighbor list builds = 0
Dangerous builds = 0
LIGGGHTS finished

 timeStepFraction() = 1
[3] cellI = 81
[3] index = 1
[3] Us = (-4.23145e-08 8.78638e-05 -0.000374903)
[3] Ur = (-3.20905e-05 2.54351e-05 -0.00158057)
[3] dprim = 200
[3] phi = 1
[3] rho = 1
[3] nuf = 1
[3] voidfraction = 0.425239
[3] Rep = 0
[3] betaP = 0.0050824
[3] drag = (-0.68318 0.541491 -33.649)
[0] cellI = 81
[0] index = 0
[0] Us = (-1.04431e-05 -9.9875e-06 -0.000603724)
[0] Ur = (-5.31274e-05 5.1437e-05 -0.00122273)
[0] dprim = 200
[0] phi = 1
[0] rho = 1
[0] nuf = 1
[0] voidfraction = 0.404328
[0] Rep = 0
[0] betaP = 0.00553537
[0] drag = (-1.23184 1.19264 -28.3507)

Solver level total Eulerian momentum exchange:
  TotalForceImp:  (27.1719 42.0629 1564.55)
  Warning, these values are based on latest Ksl and Us but prev. iteration U!

DILUPBiCG:  Solving for Ux, Initial residual = 0.189605, Final residual = 6.2342e-05, No Iterations 1
DILUPBiCG:  Solving for Uy, Initial residual = 0.176716, Final residual = 6.85541e-05, No Iterations 1
DILUPBiCG:  Solving for Uz, Initial residual = 0.140582, Final residual = 3.79134e-05, No Iterations 1
DICPCG:  Solving for p, Initial residual = 0.0308838, Final residual = 0.00143655, No Iterations 22
DICPCG:  Solving for p, Initial residual = 0.00828339, Final residual = 0.000723369, No Iterations 3
time step continuity errors : sum local = 1.55196e-07, global = 1.78765e-09, cumulative = 2.12089e-09
DICPCG:  Solving for p, Initial residual = 0.00955336, Final residual = 0.000691942, No Iterations 22
DICPCG:  Solving for p, Initial residual = 0.000573484, Final residual = 3.8307e-05, No Iterations 3
time step continuity errors : sum local = 9.79107e-09, global = -4.28768e-10, cumulative = 1.69212e-09
DICPCG:  Solving for p, Initial residual = 0.000261606, Final residual = 1.8544e-05, No Iterations 3
DICPCG:  Solving for p, Initial residual = 1.85458e-05, Final residual = 1.2013e-06, No Iterations 21
time step continuity errors : sum local = 3.06946e-10, global = -9.78627e-12, cumulative = 1.68234e-09
DICPCG:  Solving for p, Initial residual = 1.09225e-05, Final residual = 1.08905e-06, No Iterations 1
DICPCG:  Solving for p, Initial residual = 1.08904e-06, Final residual = 6.64056e-07, No Iterations 1
time step continuity errors : sum local = 1.6985e-10, global = 1.70965e-11, cumulative = 1.69943e-09
ExecutionTime = 0.06 s  ClockTime = 0 s

Time = 400

Courant Number mean: 0.00200264 max: 0.00229457

 Coupling...
Starting up LIGGGHTS
Executing command: 'run 100    '
Setting up run at Wed Mar 15 13:36:55 2023

Memory usage per processor = 6.77243 Mbytes
    Step    Atoms 
  350300      167 
  350400      167 
Loop time of 0.00605411 on 4 procs for 100 steps with 167 atoms, finish time Wed Mar 15 13:36:55 2023


Pair  time (%) = 0.00183264 (30.271)
Neigh time (%) = 0 (0)
Comm  time (%) = 0.000558159 (9.2195)
Outpt time (%) = 3.25405e-05 (0.537495)
Other time (%) = 0.00363077 (59.972)

Nlocal:    41.75 ave 94 max 0 min
Histogram: 2 0 0 0 0 0 0 1 0 1
Nghost:    186.25 ave 384 max 0 min
Histogram: 2 0 0 0 0 0 0 0 0 2
Neighs:    1078.75 ave 2382 max 0 min
Histogram: 2 0 0 0 0 0 0 0 1 1

Total # of neighbors = 4315
Ave neighs/atom = 25.8383
Neighbor list builds = 0
Dangerous builds = 0
LIGGGHTS finished

 timeStepFraction() = 1
[3] cellI = 81
[3] index = 1
[3] Us = (9.07771e-05 -4.17868e-05 8.49064e-06)
[3] Ur = (-0.000123491 0.000151537 -0.00187784)
[3] dprim = 200
[3] phi = 1
[3] rho = 1
[3] nuf = 1
[3] voidfraction = 0.424445
[3] Rep = 0
[3] betaP = 0.00510158
[3] drag = (-2.63894 3.23826 -40.1284)
[0] cellI = 81
[0] index = 0
[0] Us = (-2.57264e-05 -5.42557e-05 -0.000123502)
[0] Ur = (-2.97455e-05 8.40824e-05 -0.00162259)
[0] dprim = 200
[0] phi = 1
[0] rho = 1
[0] nuf = 1
[0] voidfraction = 0.401276
[0] Rep = 0
[0] betaP = 0.0056094
[0] drag = (-0.698917 1.97565 -38.1255)

Solver level total Eulerian momentum exchange:
  TotalForceImp:  (68.8876 89.3541 4447.01)
  Warning, these values are based on latest Ksl and Us but prev. iteration U!

DILUPBiCG:  Solving for Ux, Initial residual = 0.179905, Final residual = 5.3734e-05, No Iterations 1
DILUPBiCG:  Solving for Uy, Initial residual = 0.156052, Final residual = 4.90312e-05, No Iterations 1
DILUPBiCG:  Solving for Uz, Initial residual = 0.0809788, Final residual = 1.78517e-05, No Iterations 1
DICPCG:  Solving for p, Initial residual = 0.0739347, Final residual = 0.00735211, No Iterations 21
DICPCG:  Solving for p, Initial residual = 0.00290118, Final residual = 0.000156449, No Iterations 4
time step continuity errors : sum local = 1.01699e-07, global = -1.46176e-08, cumulative = -1.29182e-08
DICPCG:  Solving for p, Initial residual = 0.00112905, Final residual = 9.09477e-05, No Iterations 13
DICPCG:  Solving for p, Initial residual = 9.08842e-05, Final residual = 5.54603e-06, No Iterations 22
time step continuity errors : sum local = 3.60725e-09, global = -3.3694e-11, cumulative = -1.29519e-08
DICPCG:  Solving for p, Initial residual = 2.64061e-05, Final residual = 1.56306e-06, No Iterations 21
DICPCG:  Solving for p, Initial residual = 1.56389e-06, Final residual = 5.83241e-07, No Iterations 1
time step continuity errors : sum local = 3.74774e-10, global = 2.58956e-11, cumulative = -1.2926e-08
DICPCG:  Solving for p, Initial residual = 1.20859e-06, Final residual = 3.73454e-07, No Iterations 1
DICPCG:  Solving for p, Initial residual = 3.73454e-07, Final residual = 3.73454e-07, No Iterations 0
time step continuity errors : sum local = 2.3997e-10, global = 2.38525e-11, cumulative = -1.29021e-08
ExecutionTime = 0.07 s  ClockTime = 0 s

Time = 500

Courant Number mean: 0.00200281 max: 0.0023446

 Coupling...
Starting up LIGGGHTS
Executing command: 'run 100    '
Setting up run at Wed Mar 15 13:36:55 2023

Memory usage per processor = 6.77243 Mbytes
    Step    Atoms 
  350400      167 
  350500      167 
Loop time of 0.00608792 on 4 procs for 100 steps with 167 atoms, finish time Wed Mar 15 13:36:55 2023


Pair  time (%) = 0.00184384 (30.2868)
Neigh time (%) = 0 (0)
Comm  time (%) = 0.000558614 (9.17577)
Outpt time (%) = 3.2477e-05 (0.533466)
Other time (%) = 0.003653 (60.004)

Nlocal:    41.75 ave 94 max 0 min
Histogram: 2 0 0 0 0 0 0 1 0 1
Nghost:    186.25 ave 384 max 0 min
Histogram: 2 0 0 0 0 0 0 0 0 2
Neighs:    1079.5 ave 2383 max 0 min
Histogram: 2 0 0 0 0 0 0 0 1 1

Total # of neighbors = 4318
Ave neighs/atom = 25.8563
Neighbor list builds = 0
Dangerous builds = 0
LIGGGHTS finished

 timeStepFraction() = 1
[0] cellI = 81
[0] index = 0
[0] Us = (-3.49071e-05 -0.000162131 0.000109503)
[0] Ur = (-1.42031e-05 0.000193332 -0.00191267)
[0] dprim = 200
[0] phi = 1
[0] rho = 1
[0] nuf = 1
[0] voidfraction = 0.401281
[0] Rep = 0
[0] betaP = 0.00561189
[0] drag = (-0.333874 4.54467 -44.9612)
[3] cellI = 81
[3] index = 1
[3] Us = (-2.93669e-05 2.66406e-05 4.44018e-05)
[3] Ur = (1.5353e-05 7.94252e-05 -0.00192579)
[3] dprim = 200
[3] phi = 1
[3] rho = 1
[3] nuf = 1
[3] voidfraction = 0.424466
[3] Rep = 0
[3] betaP = 0.0051015
[3] drag = (0.32808 1.69725 -41.1525)

Solver level total Eulerian momentum exchange:
  TotalForceImp:  (-152.925 341.362 9902.42)
  Warning, these values are based on latest Ksl and Us but prev. iteration U!

DILUPBiCG:  Solving for Ux, Initial residual = 0.205647, Final residual = 4.39796e-05, No Iterations 1
DILUPBiCG:  Solving for Uy, Initial residual = 0.174588, Final residual = 4.39555e-05, No Iterations 1
DILUPBiCG:  Solving for Uz, Initial residual = 0.120396, Final residual = 2.55533e-05, No Iterations 1
DICPCG:  Solving for p, Initial residual = 0.0285386, Final residual = 0.00208349, No Iterations 22
DICPCG:  Solving for p, Initial residual = 0.00105872, Final residual = 6.12256e-05, No Iterations 3
time step continuity errors : sum local = 7.76171e-08, global = -4.22904e-09, cumulative = -1.71312e-08
DICPCG:  Solving for p, Initial residual = 0.000613478, Final residual = 5.41249e-05, No Iterations 22
DICPCG:  Solving for p, Initial residual = 5.50296e-05, Final residual = 3.48917e-06, No Iterations 3
time step continuity errors : sum local = 4.34905e-09, global = 2.33696e-10, cumulative = -1.68975e-08
DICPCG:  Solving for p, Initial residual = 1.64572e-05, Final residual = 1.44158e-06, No Iterations 4
DICPCG:  Solving for p, Initial residual = 1.44158e-06, Final residual = 6.9722e-07, No Iterations 1
time step continuity errors : sum local = 8.69016e-10, global = 2.75067e-10, cumulative = -1.66224e-08
DICPCG:  Solving for p, Initial residual = 1.01651e-06, Final residual = 6.40798e-07, No Iterations 1
DICPCG:  Solving for p, Initial residual = 6.40798e-07, Final residual = 6.40798e-07, No Iterations 0
time step continuity errors : sum local = 7.98691e-10, global = 3.00572e-10, cumulative = -1.63218e-08
ExecutionTime = 0.08 s  ClockTime = 0 s

Time = 600

Courant Number mean: 0.00200351 max: 0.00243703

 Coupling...
Starting up LIGGGHTS
Executing command: 'run 100    '
Setting up run at Wed Mar 15 13:36:55 2023

Memory usage per processor = 6.77243 Mbytes
    Step    Atoms 
  350500      167 
  350600      167 
Loop time of 0.00615259 on 4 procs for 100 steps with 167 atoms, finish time Wed Mar 15 13:36:55 2023


Pair  time (%) = 0.00186715 (30.3474)
Neigh time (%) = 0 (0)
Comm  time (%) = 0.000547835 (8.90413)
Outpt time (%) = 3.23942e-05 (0.526514)
Other time (%) = 0.00370521 (60.222)

Nlocal:    41.75 ave 94 max 0 min
Histogram: 2 0 0 0 0 0 0 1 0 1
Nghost:    186.25 ave 384 max 0 min
Histogram: 2 0 0 0 0 0 0 0 0 2
Neighs:    1080 ave 2384 max 0 min
Histogram: 2 0 0 0 0 0 0 0 1 1

Total # of neighbors = 4320
Ave neighs/atom = 25.8683
Neighbor list builds = 0
Dangerous builds = 0
LIGGGHTS finished

 timeStepFraction() = 1
[3] cellI = 81
[3] index = 1
[3] Us = (-3.47157e-05 -1.21704e-05 -2.36733e-06)
[3] Ur = (1.385e-05 0.000152179 -0.00191534)
[3] dprim = 200
[3] phi = 1
[3] rho = 1
[3] nuf = 1
[3] voidfraction = 0.424462
[3] Rep = 0
[3] betaP = 0.00510153
[3] drag = (0.295964 3.25195 -40.9293)
[0] cellI = 81
[0] index = 0
[0] Us = (-2.09637e-05 9.5573e-05 -3.61568e-05)
[0] Ur = (-6.93261e-05 -6.67659e-05 -0.00182758)
[0] dprim = 200
[0] phi = 1
[0] rho = 1
[0] nuf = 1
[0] voidfraction = 0.401288
[0] Rep = 0
[0] betaP = 0.00561093
[0] drag = (-1.62937 -1.5692 -42.9536)

Solver level total Eulerian momentum exchange:
  TotalForceImp:  (-141.345 722.6 11215.8)
  Warning, these values are based on latest Ksl and Us but prev. iteration U!

DILUPBiCG:  Solving for Ux, Initial residual = 0.211966, Final residual = 4.81093e-05, No Iterations 1
DILUPBiCG:  Solving for Uy, Initial residual = 0.219643, Final residual = 5.20159e-05, No Iterations 1
DILUPBiCG:  Solving for Uz, Initial residual = 0.0693291, Final residual = 2.31839e-05, No Iterations 1
DICPCG:  Solving for p, Initial residual = 0.0141871, Final residual = 0.00126712, No Iterations 11
DICPCG:  Solving for p, Initial residual = 0.00127892, Final residual = 8.79095e-05, No Iterations 22
time step continuity errors : sum local = 1.08821e-07, global = -1.18552e-09, cumulative = -1.75074e-08
DICPCG:  Solving for p, Initial residual = 0.000545485, Final residual = 4.88901e-05, No Iterations 11
DICPCG:  Solving for p, Initial residual = 4.88716e-05, Final residual = 3.68624e-06, No Iterations 22
time step continuity errors : sum local = 5.11796e-09, global = 1.30952e-10, cumulative = -1.73764e-08
DICPCG:  Solving for p, Initial residual = 1.22759e-05, Final residual = 9.53506e-07, No Iterations 3
DICPCG:  Solving for p, Initial residual = 9.53507e-07, Final residual = 9.53507e-07, No Iterations 0
time step continuity errors : sum local = 1.31726e-09, global = -1.45963e-10, cumulative = -1.75224e-08
DICPCG:  Solving for p, Initial residual = 1.14504e-06, Final residual = 5.87834e-07, No Iterations 1
DICPCG:  Solving for p, Initial residual = 5.87834e-07, Final residual = 5.87834e-07, No Iterations 0
time step continuity errors : sum local = 8.12088e-10, global = -1.3732e-10, cumulative = -1.76597e-08
ExecutionTime = 0.09 s  ClockTime = 0 s

Time = 700

Courant Number mean: 0.00200421 max: 0.00250714

 Coupling...
Starting up LIGGGHTS
Executing command: 'run 100    '
Setting up run at Wed Mar 15 13:36:55 2023

Memory usage per processor = 6.77243 Mbytes
    Step    Atoms 
  350600      167 
  350700      167 
Loop time of 0.00615413 on 4 procs for 100 steps with 167 atoms, finish time Wed Mar 15 13:36:55 2023


Pair  time (%) = 0.00185722 (30.1785)
Neigh time (%) = 0 (0)
Comm  time (%) = 0.000550469 (8.94471)
Outpt time (%) = 3.3076e-05 (0.53746)
Other time (%) = 0.00371336 (60.3393)

Nlocal:    41.75 ave 94 max 0 min
Histogram: 2 0 0 0 0 0 0 1 0 1
Nghost:    186.25 ave 384 max 0 min
Histogram: 2 0 0 0 0 0 0 0 0 2
Neighs:    1080 ave 2384 max 0 min
Histogram: 2 0 0 0 0 0 0 0 1 1

Total # of neighbors = 4320
Ave neighs/atom = 25.8683
Neighbor list builds = 0
Dangerous builds = 0
LIGGGHTS finished

 timeStepFraction() = 1
[3] cellI = 81
[3] index = 1
[3] Us = (-2.21491e-05 3.92172e-05 1.36016e-05)
[3] Ur = (-1.5792e-05 0.000109296 -0.00191911)
[3] dprim = 200
[3] phi = 1
[3] rho = 1
[3] nuf = 1
[3] voidfraction = 0.424468
[3] Rep = 0
[3] betaP = 0.0051014
[3] drag = (-0.337454 2.33552 -41.009)
[0] cellI = 81
[0] index = 0
[0] Us = (-2.41188e-05 2.44493e-05 2.72589e-05)
[0] Ur = (-6.59808e-05 3.77747e-05 -0.00191471)
[0] dprim = 200
[0] phi = 1
[0] rho = 1
[0] nuf = 1
[0] voidfraction = 0.401276
[0] Rep = 0
[0] betaP = 0.00561194
[0] drag = (-1.55103 0.88798 -45.0096)

Solver level total Eulerian momentum exchange:
  TotalForceImp:  (28.2263 485.866 11084.9)
  Warning, these values are based on latest Ksl and Us but prev. iteration U!

DILUPBiCG:  Solving for Ux, Initial residual = 0.139641, Final residual = 3.33305e-05, No Iterations 1
DILUPBiCG:  Solving for Uy, Initial residual = 0.150848, Final residual = 4.39225e-05, No Iterations 1
DILUPBiCG:  Solving for Uz, Initial residual = 0.0418594, Final residual = 1.27417e-05, No Iterations 1
DICPCG:  Solving for p, Initial residual = 0.00725443, Final residual = 0.000677323, No Iterations 2
DICPCG:  Solving for p, Initial residual = 0.000672226, Final residual = 5.93169e-05, No Iterations 22
time step continuity errors : sum local = 8.27812e-08, global = -1.81247e-09, cumulative = -1.94722e-08
DICPCG:  Solving for p, Initial residual = 0.000203608, Final residual = 1.90295e-05, No Iterations 10
DICPCG:  Solving for p, Initial residual = 1.90317e-05, Final residual = 1.01319e-06, No Iterations 18
time step continuity errors : sum local = 1.36979e-09, global = 5.08184e-11, cumulative = -1.94213e-08
DICPCG:  Solving for p, Initial residual = 5.23669e-06, Final residual = 6.40471e-07, No Iterations 3
DICPCG:  Solving for p, Initial residual = 6.40473e-07, Final residual = 6.40473e-07, No Iterations 0
time step continuity errors : sum local = 8.67168e-10, global = 6.42467e-11, cumulative = -1.93571e-08
DICPCG:  Solving for p, Initial residual = 7.24897e-07, Final residual = 7.24897e-07, No Iterations 0
DICPCG:  Solving for p, Initial residual = 7.24897e-07, Final residual = 7.24897e-07, No Iterations 0
time step continuity errors : sum local = 9.81474e-10, global = 6.41281e-11, cumulative = -1.9293e-08
ExecutionTime = 0.1 s  ClockTime = 0 s

Time = 800

Courant Number mean: 0.00200459 max: 0.0025769

 Coupling...
Starting up LIGGGHTS
Executing command: 'run 100    '
Setting up run at Wed Mar 15 13:36:55 2023

Memory usage per processor = 6.77243 Mbytes
    Step    Atoms 
  350700      167 
  350800      167 
Loop time of 0.00611237 on 4 procs for 100 steps with 167 atoms, finish time Wed Mar 15 13:36:55 2023


Pair  time (%) = 0.00185219 (30.3024)
Neigh time (%) = 0 (0)
Comm  time (%) = 0.000548234 (8.96926)
Outpt time (%) = 3.16165e-05 (0.517254)
Other time (%) = 0.00368032 (60.2111)

Nlocal:    41.75 ave 94 max 0 min
Histogram: 2 0 0 0 0 0 0 1 0 1
Nghost:    186.25 ave 384 max 0 min
Histogram: 2 0 0 0 0 0 0 0 0 2
Neighs:    1080 ave 2384 max 0 min
Histogram: 2 0 0 0 0 0 0 0 1 1

Total # of neighbors = 4320
Ave neighs/atom = 25.8683
Neighbor list builds = 0
Dangerous builds = 0
LIGGGHTS finished

 timeStepFraction() = 1
[3] cellI = 81
[3] index = 1
[3] Us = (3.36705e-05 -1.7119e-05 1.89473e-05)
[3] Ur = (-8.40104e-05 0.000191119 -0.00195629)
[3] dprim = 200
[3] phi = 1
[3] rho = 1
[3] nuf = 1
[3] voidfraction = 0.424494
[3] Rep = 0
[3] betaP = 0.00510127
[3] drag = (-1.79515 4.08385 -41.8023)
[0] cellI = 81
[0] index = 0
[0] Us = (4.17025e-05 9.05103e-05 5.55887e-05)
[0] Ur = (-0.000155945 -2.0539e-05 -0.00198602)
[0] dprim = 200
[0] phi = 1
[0] rho = 1
[0] nuf = 1
[0] voidfraction = 0.401329
[0] Rep = 0
[0] betaP = 0.00561139
[0] drag = (-3.66548 -0.482768 -46.6813)

Solver level total Eulerian momentum exchange:
  TotalForceImp:  (461.055 -4.43217 9484.1)
  Warning, these values are based on latest Ksl and Us but prev. iteration U!

DILUPBiCG:  Solving for Ux, Initial residual = 0.19677, Final residual = 2.86975e-05, No Iterations 1
DILUPBiCG:  Solving for Uy, Initial residual = 0.166106, Final residual = 3.23707e-05, No Iterations 1
DILUPBiCG:  Solving for Uz, Initial residual = 0.0355535, Final residual = 1.22579e-05, No Iterations 1
DICPCG:  Solving for p, Initial residual = 0.00740005, Final residual = 0.000421801, No Iterations 21
DICPCG:  Solving for p, Initial residual = 0.000463782, Final residual = 4.15753e-05, No Iterations 3
time step continuity errors : sum local = 5.118e-08, global = -1.39705e-09, cumulative = -2.069e-08
DICPCG:  Solving for p, Initial residual = 0.000307085, Final residual = 2.72978e-05, No Iterations 11
DICPCG:  Solving for p, Initial residual = 2.73077e-05, Final residual = 1.77376e-06, No Iterations 22
time step continuity errors : sum local = 2.18204e-09, global = -6.34658e-11, cumulative = -2.07535e-08
DICPCG:  Solving for p, Initial residual = 6.7372e-06, Final residual = 7.87655e-07, No Iterations 3
DICPCG:  Solving for p, Initial residual = 7.87657e-07, Final residual = 7.87657e-07, No Iterations 0
time step continuity errors : sum local = 9.72063e-10, global = -1.32657e-10, cumulative = -2.08861e-08
DICPCG:  Solving for p, Initial residual = 9.30563e-07, Final residual = 9.30563e-07, No Iterations 0
DICPCG:  Solving for p, Initial residual = 9.30563e-07, Final residual = 9.30563e-07, No Iterations 0
time step continuity errors : sum local = 1.14843e-09, global = -1.36157e-10, cumulative = -2.10223e-08
ExecutionTime = 0.11 s  ClockTime = 0 s

Time = 900

Courant Number mean: 0.00200463 max: 0.0025441

 Coupling...
Starting up LIGGGHTS
Executing command: 'run 100    '
Setting up run at Wed Mar 15 13:36:55 2023

Memory usage per processor = 6.77243 Mbytes
    Step    Atoms 
  350800      167 
  350900      167 
Loop time of 0.00607629 on 4 procs for 100 steps with 167 atoms, finish time Wed Mar 15 13:36:55 2023


Pair  time (%) = 0.00183338 (30.1728)
Neigh time (%) = 0 (0)
Comm  time (%) = 0.000547177 (9.00513)
Outpt time (%) = 3.17018e-05 (0.521729)
Other time (%) = 0.00366402 (60.3004)

Nlocal:    41.75 ave 94 max 0 min
Histogram: 2 0 0 0 0 0 0 1 0 1
Nghost:    186.25 ave 384 max 0 min
Histogram: 2 0 0 0 0 0 0 0 0 2
Neighs:    1080 ave 2384 max 0 min
Histogram: 2 0 0 0 0 0 0 0 1 1

Total # of neighbors = 4320
Ave neighs/atom = 25.8683
Neighbor list builds = 0
Dangerous builds = 0
LIGGGHTS finished

 timeStepFraction() = 1
[0] cellI = 81
[0] index = 0
[0] Us = (5.38793e-07 -9.97985e-05 -4.91734e-05)
[0] Ur = (-8.33158e-05 0.000163617 -0.00195041)
[0] dprim = 200
[0] phi = 1
[0] rho = 1
[0] nuf = 1
[0] voidfraction = 0.401322
[0] Rep = 0
[0] betaP = 0.00561125
[0] drag = (-1.95828 3.84572 -45.8432)
[3] cellI = 81
[3] index = 1
[3] Us = (3.21872e-05 -2.07729e-05 -2.94526e-05)
[3] Ur = (-4.82108e-05 0.00020383 -0.00194846)
[3] dprim = 200
[3] phi = 1
[3] rho = 1
[3] nuf = 1
[3] voidfraction = 0.424478
[3] Rep = 0
[3] betaP = 0.00510152
[3] drag = (-1.03023 4.35568 -41.6371)

Solver level total Eulerian momentum exchange:
  TotalForceImp:  (-96.6625 -204.763 7787.61)
  Warning, these values are based on latest Ksl and Us but prev. iteration U!

DILUPBiCG:  Solving for Ux, Initial residual = 0.123511, Final residual = 1.90398e-05, No Iterations 1
DILUPBiCG:  Solving for Uy, Initial residual = 0.179194, Final residual = 3.45429e-05, No Iterations 1
DILUPBiCG:  Solving for Uz, Initial residual = 0.0274572, Final residual = 7.5015e-06, No Iterations 1
DICPCG:  Solving for p, Initial residual = 0.0106386, Final residual = 0.000476338, No Iterations 22
DICPCG:  Solving for p, Initial residual = 0.000576399, Final residual = 3.28664e-05, No Iterations 3
time step continuity errors : sum local = 3.33891e-08, global = 3.13624e-09, cumulative = -1.78861e-08
DICPCG:  Solving for p, Initial residual = 0.00037041, Final residual = 3.57693e-05, No Iterations 21
DICPCG:  Solving for p, Initial residual = 3.56245e-05, Final residual = 3.165e-06, No Iterations 3
time step continuity errors : sum local = 3.22638e-09, global = -3.58885e-10, cumulative = -1.82449e-08
DICPCG:  Solving for p, Initial residual = 9.6428e-06, Final residual = 7.59468e-07, No Iterations 17
DICPCG:  Solving for p, Initial residual = 7.59355e-07, Final residual = 7.59355e-07, No Iterations 0
time step continuity errors : sum local = 7.7419e-10, global = 6.4201e-11, cumulative = -1.81807e-08
DICPCG:  Solving for p, Initial residual = 9.51717e-07, Final residual = 9.51717e-07, No Iterations 0
DICPCG:  Solving for p, Initial residual = 9.51717e-07, Final residual = 9.51717e-07, No Iterations 0
time step continuity errors : sum local = 9.7031e-10, global = 7.86089e-11, cumulative = -1.81021e-08
ExecutionTime = 0.12 s  ClockTime = 0 s

Time = 1000

Courant Number mean: 0.00200458 max: 0.00248444

 Coupling...
Starting up LIGGGHTS
Executing command: 'run 100    '
Setting up run at Wed Mar 15 13:36:55 2023

Memory usage per processor = 6.77243 Mbytes
    Step    Atoms 
  350900      167 
  351000      167 
Loop time of 0.00610803 on 4 procs for 100 steps with 167 atoms, finish time Wed Mar 15 13:36:55 2023


Pair  time (%) = 0.00183799 (30.0914)
Neigh time (%) = 0 (0)
Comm  time (%) = 0.000547067 (8.95652)
Outpt time (%) = 3.26802e-05 (0.535037)
Other time (%) = 0.0036903 (60.4171)

Nlocal:    41.75 ave 94 max 0 min
Histogram: 2 0 0 0 0 0 0 1 0 1
Nghost:    186.25 ave 384 max 0 min
Histogram: 2 0 0 0 0 0 0 0 0 2
Neighs:    1080 ave 2384 max 0 min
Histogram: 2 0 0 0 0 0 0 0 1 1

Total # of neighbors = 4320
Ave neighs/atom = 25.8683
Neighbor list builds = 0
Dangerous builds = 0
Executing command: 'write_restart ../DEM/liggghts.restartCFDEM'
System init for write_restart ...
LIGGGHTS finished

 timeStepFraction() = 1
[3] cellI = 81
[3] index = 1
[3] Us = (-2.4197e-05 1.49659e-05 -1.98346e-05)
[0] cellI = 81
[0] index = 0
[0] Us = (-2.13702e-06 -3.38118e-06 -2.58615e-05)
[0] Ur = (-8.45603e-05 5.04355e-05 -0.00190728)
[0] dprim = 200
[0] phi = 1
[3] Ur = (1.19253e-05 0.000158365 -0.00180952)
[3] dprim = 200
[3] phi = 1
[3] rho = 1
[3] nuf = 1
[3] voidfraction = 0.424458
[3] Rep = 0
[3] betaP = 0.00510068
[0] rho = 1
[0] nuf = 1
[0] voidfraction = 0.40128
[0] Rep = 0
[3] drag = (0.254792 3.38359 -38.6617)
[0] betaP = 0.00561181
[0] drag = (-1.98773 1.18557 -44.8339)

Solver level total Eulerian momentum exchange:
  TotalForceImp:  (-214.241 293.192 8935.33)
  Warning, these values are based on latest Ksl and Us but prev. iteration U!

DILUPBiCG:  Solving for Ux, Initial residual = 0.196945, Final residual = 2.30495e-05, No Iterations 1
DILUPBiCG:  Solving for Uy, Initial residual = 0.121802, Final residual = 2.89419e-05, No Iterations 1
DILUPBiCG:  Solving for Uz, Initial residual = 0.0216696, Final residual = 6.18942e-06, No Iterations 1
DICPCG:  Solving for p, Initial residual = 0.00887174, Final residual = 0.000705237, No Iterations 11
DICPCG:  Solving for p, Initial residual = 0.0007069, Final residual = 3.56997e-05, No Iterations 22
time step continuity errors : sum local = 3.6235e-08, global = -2.15102e-09, cumulative = -2.02532e-08
DICPCG:  Solving for p, Initial residual = 0.000243919, Final residual = 2.42565e-05, No Iterations 7
DICPCG:  Solving for p, Initial residual = 2.42538e-05, Final residual = 1.58234e-06, No Iterations 22
time step continuity errors : sum local = 1.73166e-09, global = -2.89321e-11, cumulative = -2.02821e-08
DICPCG:  Solving for p, Initial residual = 5.29459e-06, Final residual = 5.58832e-07, No Iterations 2
DICPCG:  Solving for p, Initial residual = 5.58832e-07, Final residual = 5.58832e-07, No Iterations 0
time step continuity errors : sum local = 6.10337e-10, global = 5.44916e-11, cumulative = -2.02276e-08
DICPCG:  Solving for p, Initial residual = 6.59186e-07, Final residual = 6.59186e-07, No Iterations 0
DICPCG:  Solving for p, Initial residual = 6.59186e-07, Final residual = 6.59186e-07, No Iterations 0
time step continuity errors : sum local = 7.1994e-10, global = 5.92581e-11, cumulative = -2.01683e-08
ExecutionTime = 0.14 s  ClockTime = 0 s

Time = 1100

Courant Number mean: 0.00200478 max: 0.0025132

 Coupling...
Starting up LIGGGHTS
Executing command: 'run 100    '
Setting up run at Wed Mar 15 13:36:55 2023

Memory usage per processor = 6.77243 Mbytes
    Step    Atoms 
  351000      167 
  351100      167 
Loop time of 0.00610445 on 4 procs for 100 steps with 167 atoms, finish time Wed Mar 15 13:36:55 2023


Pair  time (%) = 0.00184188 (30.1728)
Neigh time (%) = 0 (0)
Comm  time (%) = 0.000545875 (8.94223)
Outpt time (%) = 3.2414e-05 (0.530989)
Other time (%) = 0.00368428 (60.354)

Nlocal:    41.75 ave 94 max 0 min
Histogram: 2 0 0 0 0 0 0 1 0 1
Nghost:    186.25 ave 384 max 0 min
Histogram: 2 0 0 0 0 0 0 0 0 2
Neighs:    1079.5 ave 2382 max 0 min
Histogram: 2 0 0 0 0 0 0 0 1 1

Total # of neighbors = 4318
Ave neighs/atom = 25.8563
Neighbor list builds = 0
Dangerous builds = 0
Executing command: 'write_restart ../DEM/liggghts.restartCFDEM'
System init for write_restart ...
LIGGGHTS finished

 timeStepFraction() = 1
[3] cellI = 81
[3] index = 1
[3] Us = (9.34495e-06 -4.60949e-06 3.62073e-05)
[3] Ur = (-4.4051e-05 0.000191258 -0.00183387)
[3] dprim = 200
[3] phi = 1
[3] rho = 1
[3] nuf = 1
[3] voidfraction = 0.424482
[3] Rep = 0
[3] betaP = 0.00510043
[3] drag = (-0.941134 4.08616 -39.1799)
[0] cellI = 81
[0] index = 0
[0] Us = (1.03373e-05 2.44593e-05 6.93975e-05)
[0] Ur = (-0.000120438 3.37605e-05 -0.00197898)
[0] dprim = 200
[0] phi = 1
[0] rho = 1
[0] nuf = 1
[0] voidfraction = 0.401321
[0] Rep = 0
[0] betaP = 0.00561148
[0] drag = (-2.83094 0.793551 -46.5165)

Solver level total Eulerian momentum exchange:
  TotalForceImp:  (114.315 264.824 10293.7)
  Warning, these values are based on latest Ksl and Us but prev. iteration U!

DILUPBiCG:  Solving for Ux, Initial residual = 0.115557, Final residual = 2.15039e-05, No Iterations 1
DILUPBiCG:  Solving for Uy, Initial residual = 0.0593062, Final residual = 1.37152e-05, No Iterations 1
DILUPBiCG:  Solving for Uz, Initial residual = 0.0321525, Final residual = 7.47373e-06, No Iterations 1
DICPCG:  Solving for p, Initial residual = 0.0110412, Final residual = 0.000690049, No Iterations 22
DICPCG:  Solving for p, Initial residual = 0.00056953, Final residual = 4.08133e-05, No Iterations 3
time step continuity errors : sum local = 5.43195e-08, global = -5.4812e-09, cumulative = -2.56495e-08
DICPCG:  Solving for p, Initial residual = 0.000276543, Final residual = 1.03373e-05, No Iterations 22
DICPCG:  Solving for p, Initial residual = 1.03724e-05, Final residual = 7.79111e-07, No Iterations 3
time step continuity errors : sum local = 1.03332e-09, global = 7.90038e-11, cumulative = -2.55705e-08
DICPCG:  Solving for p, Initial residual = 6.92695e-06, Final residual = 9.4713e-07, No Iterations 3
DICPCG:  Solving for p, Initial residual = 9.47132e-07, Final residual = 9.47132e-07, No Iterations 0
time step continuity errors : sum local = 1.25616e-09, global = 1.11394e-10, cumulative = -2.54591e-08
DICPCG:  Solving for p, Initial residual = 1.14052e-06, Final residual = 5.19652e-07, No Iterations 1
DICPCG:  Solving for p, Initial residual = 5.19652e-07, Final residual = 5.19652e-07, No Iterations 0
time step continuity errors : sum local = 6.89201e-10, global = 1.46027e-10, cumulative = -2.53131e-08
ExecutionTime = 0.15 s  ClockTime = 0 s

Time = 1200

Courant Number mean: 0.00200507 max: 0.00256607

 Coupling...
Starting up LIGGGHTS
Executing command: 'run 100    '
Setting up run at Wed Mar 15 13:36:55 2023

Memory usage per processor = 6.77243 Mbytes
    Step    Atoms 
  351100      167 
  351200      167 
Loop time of 0.0061176 on 4 procs for 100 steps with 167 atoms, finish time Wed Mar 15 13:36:55 2023


Pair  time (%) = 0.00184082 (30.0906)
Neigh time (%) = 0 (0)
Comm  time (%) = 0.000543064 (8.87707)
Outpt time (%) = 3.2238e-05 (0.526971)
Other time (%) = 0.00370148 (60.5054)

Nlocal:    41.75 ave 94 max 0 min
Histogram: 2 0 0 0 0 0 0 1 0 1
Nghost:    186.25 ave 384 max 0 min
Histogram: 2 0 0 0 0 0 0 0 0 2
Neighs:    1079.5 ave 2382 max 0 min
Histogram: 2 0 0 0 0 0 0 0 1 1

Total # of neighbors = 4318
Ave neighs/atom = 25.8563
Neighbor list builds = 0
Dangerous builds = 0
Executing command: 'write_restart ../DEM/liggghts.restartCFDEM'
System init for write_restart ...
LIGGGHTS finished

 timeStepFraction() = 1
[0] cellI = 81
[0] index = 0
[0] Us = (-4.38353e-06 -1.24477e-06 1.30318e-05)
[0] Ur = (-9.74226e-05 6.31384e-05 -0.00201353)
[0] dprim = 200
[0] phi = 1
[0] rho = 1
[0] nuf = 1
[0] voidfraction = 0.401358
[0] Rep = 0
[0] betaP = 0.00561092
[0] drag = (-2.28972 1.48394 -47.324)
[3] cellI = 81
[3] index = 1
[3] Us = (1.61302e-05 -5.36853e-06 2.50782e-05)
[3] Ur = (-2.92491e-05 0.000199879 -0.00192344)
[3] dprim = 200
[3] phi = 1
[3] rho = 1
[3] nuf = 1
[3] voidfraction = 0.424498
[3] Rep = 0
[3] betaP = 0.00510088
[3] drag = (-0.624951 4.27072 -41.0972)

Solver level total Eulerian momentum exchange:
  TotalForceImp:  (-133.55 534.493 10233.4)
  Warning, these values are based on latest Ksl and Us but prev. iteration U!

DILUPBiCG:  Solving for Ux, Initial residual = 0.110749, Final residual = 1.92972e-05, No Iterations 1
DILUPBiCG:  Solving for Uy, Initial residual = 0.096728, Final residual = 1.46538e-05, No Iterations 1
DILUPBiCG:  Solving for Uz, Initial residual = 0.0163855, Final residual = 5.10013e-06, No Iterations 1
DICPCG:  Solving for p, Initial residual = 0.00651946, Final residual = 0.000380262, No Iterations 1
DICPCG:  Solving for p, Initial residual = 0.00037842, Final residual = 2.84005e-05, No Iterations 7
time step continuity errors : sum local = 3.80188e-08, global = 2.44616e-09, cumulative = -2.2867e-08
DICPCG:  Solving for p, Initial residual = 9.19771e-05, Final residual = 9.14987e-06, No Iterations 16
DICPCG:  Solving for p, Initial residual = 9.1634e-06, Final residual = 9.98502e-07, No Iterations 11
time step continuity errors : sum local = 1.33366e-09, global = 5.66558e-10, cumulative = -2.23004e-08
DICPCG:  Solving for p, Initial residual = 4.20721e-06, Final residual = 8.29599e-07, No Iterations 3
DICPCG:  Solving for p, Initial residual = 8.29601e-07, Final residual = 8.29601e-07, No Iterations 0
time step continuity errors : sum local = 1.10793e-09, global = 1.36285e-10, cumulative = -2.21641e-08
DICPCG:  Solving for p, Initial residual = 8.82967e-07, Final residual = 8.82967e-07, No Iterations 0
DICPCG:  Solving for p, Initial residual = 8.82967e-07, Final residual = 8.82967e-07, No Iterations 0
time step continuity errors : sum local = 1.17919e-09, global = 1.18137e-10, cumulative = -2.2046e-08
ExecutionTime = 0.16 s  ClockTime = 0 s

Time = 1300

Courant Number mean: 0.00200534 max: 0.0026088

 Coupling...
Starting up LIGGGHTS
Executing command: 'run 100    '
Setting up run at Wed Mar 15 13:36:55 2023

Memory usage per processor = 6.77243 Mbytes
    Step    Atoms 
  351200      167 
  351300      167 
Loop time of 0.00613368 on 4 procs for 100 steps with 167 atoms, finish time Wed Mar 15 13:36:55 2023


Pair  time (%) = 0.00184407 (30.0646)
Neigh time (%) = 0 (0)
Comm  time (%) = 0.000552719 (9.01121)
Outpt time (%) = 3.25232e-05 (0.530241)
Other time (%) = 0.00370437 (60.3939)

Nlocal:    41.75 ave 94 max 0 min
Histogram: 2 0 0 0 0 0 0 1 0 1
Nghost:    186.25 ave 384 max 0 min
Histogram: 2 0 0 0 0 0 0 0 0 2
Neighs:    1079.5 ave 2382 max 0 min
Histogram: 2 0 0 0 0 0 0 0 1 1

Total # of neighbors = 4318
Ave neighs/atom = 25.8563
Neighbor list builds = 0
Dangerous builds = 0
Executing command: 'write_restart ../DEM/liggghts.restartCFDEM'
System init for write_restart ...
LIGGGHTS finished

 timeStepFraction() = 1
[3] cellI = 81
[3] index = 1
[3] Us = (-1.40043e-05 1.87343e-06 -2.98484e-05)
[3] Ur = (6.24952e-06 0.000218206 -0.00194863)
[3] dprim = 200
[3] phi = 1
[3] rho = 1
[3] nuf = 1
[3] voidfraction = 0.424484
[3] Rep = 0
[3] betaP = 0.00510141
[3] drag = (0.133544 4.6628 -41.6399)
[0] cellI = 81
[0] index = 0
[0] Us = (-8.65411e-06 2.41671e-07 -4.91104e-05)
[0] Ur = (-0.000104888 6.54679e-05 -0.00205678)
[0] dprim = 200
[0] phi = 1
[0] rho = 1
[0] nuf = 1
[0] voidfraction = 0.401323
[0] Rep = 0
[0] betaP = 0.00561213
[0] drag = (-2.4657 1.53902 -48.3509)

Solver level total Eulerian momentum exchange:
  TotalForceImp:  (-806.255 95.4333 8002.88)
  Warning, these values are based on latest Ksl and Us but prev. iteration U!

DILUPBiCG:  Solving for Ux, Initial residual = 0.196337, Final residual = 1.59578e-05, No Iterations 1
DILUPBiCG:  Solving for Uy, Initial residual = 0.0970288, Final residual = 9.81245e-06, No Iterations 1
DILUPBiCG:  Solving for Uz, Initial residual = 0.0198012, Final residual = 6.19034e-06, No Iterations 1
DICPCG:  Solving for p, Initial residual = 0.012087, Final residual = 0.000717377, No Iterations 22
DICPCG:  Solving for p, Initial residual = 0.000873443, Final residual = 7.27328e-05, No Iterations 3
time step continuity errors : sum local = 7.94946e-08, global = 9.73084e-09, cumulative = -1.23151e-08
DICPCG:  Solving for p, Initial residual = 0.000444687, Final residual = 3.42111e-05, No Iterations 10
DICPCG:  Solving for p, Initial residual = 3.42278e-05, Final residual = 2.2922e-06, No Iterations 17
time step continuity errors : sum local = 2.50177e-09, global = 7.05173e-10, cumulative = -1.161e-08
DICPCG:  Solving for p, Initial residual = 9.00898e-06, Final residual = 9.56351e-07, No Iterations 10
DICPCG:  Solving for p, Initial residual = 9.56359e-07, Final residual = 9.56359e-07, No Iterations 0
time step continuity errors : sum local = 1.04717e-09, global = -2.51398e-10, cumulative = -1.18614e-08
DICPCG:  Solving for p, Initial residual = 1.18601e-06, Final residual = 5.13987e-07, No Iterations 1
DICPCG:  Solving for p, Initial residual = 5.13987e-07, Final residual = 5.13987e-07, No Iterations 0
time step continuity errors : sum local = 5.62792e-10, global = -2.97866e-10, cumulative = -1.21592e-08
ExecutionTime = 0.17 s  ClockTime = 0 s

Time = 1400

Courant Number mean: 0.00200522 max: 0.00261641

 Coupling...
Starting up LIGGGHTS
Executing command: 'run 100    '
Setting up run at Wed Mar 15 13:36:55 2023

Memory usage per processor = 6.77243 Mbytes
    Step    Atoms 
  351300      167 
  351400      167 
Loop time of 0.00610118 on 4 procs for 100 steps with 167 atoms, finish time Wed Mar 15 13:36:55 2023


Pair  time (%) = 0.00184701 (30.2731)
Neigh time (%) = 0 (0)
Comm  time (%) = 0.000544231 (8.9201)
Outpt time (%) = 3.24105e-05 (0.531217)
Other time (%) = 0.00367752 (60.2756)

Nlocal:    41.75 ave 94 max 0 min
Histogram: 2 0 0 0 0 0 0 1 0 1
Nghost:    186.25 ave 384 max 0 min
Histogram: 2 0 0 0 0 0 0 0 0 2
Neighs:    1079.5 ave 2382 max 0 min
Histogram: 2 0 0 0 0 0 0 0 1 1

Total # of neighbors = 4318
Ave neighs/atom = 25.8563
Neighbor list builds = 0
Dangerous builds = 0
Executing command: 'write_restart ../DEM/liggghts.restartCFDEM'
System init for write_restart ...
LIGGGHTS finished

 timeStepFraction() = 1
[3] cellI = 81
[3] index = 1
[3] Us = (-1.57989e-05 -3.02186e-06 -8.44062e-06)
[3] Ur = (-6.77775e-06 0.000211243 -0.00182693)
[3] dprim = 200
[3] phi = 1
[3] rho = 1
[3] nuf = 1
[3] voidfraction = 0.424472
[3] Rep = 0
[3] betaP = 0.0051006
[3] drag = (-0.144809 4.51329 -39.0331)
[0] cellI = 81
[0] index = 0
[0] Us = (2.01892e-06 -1.76779e-05 -2.0789e-06)
[0] Ur = (-0.000120801 7.7289e-05 -0.0019848)
[0] dprim = 200
[0] phi = 1
[0] rho = 1
[0] nuf = 1
[0] voidfraction = 0.401299
[0] Rep = 0
[0] betaP = 0.00561205
[0] drag = (-2.83976 1.81689 -46.658)

Solver level total Eulerian momentum exchange:
  TotalForceImp:  (-55.937 9.53487 7892.45)
  Warning, these values are based on latest Ksl and Us but prev. iteration U!

DILUPBiCG:  Solving for Ux, Initial residual = 0.109535, Final residual = 1.84532e-05, No Iterations 1
DILUPBiCG:  Solving for Uy, Initial residual = 0.119398, Final residual = 1.29273e-05, No Iterations 1
DILUPBiCG:  Solving for Uz, Initial residual = 0.0216354, Final residual = 5.27865e-06, No Iterations 1
DICPCG:  Solving for p, Initial residual = 0.0157383, Final residual = 0.00128524, No Iterations 2
DICPCG:  Solving for p, Initial residual = 0.00128199, Final residual = 6.18824e-05, No Iterations 23
time step continuity errors : sum local = 6.76088e-08, global = -1.9492e-09, cumulative = -1.41084e-08
DICPCG:  Solving for p, Initial residual = 0.000411471, Final residual = 2.67523e-05, No Iterations 3
DICPCG:  Solving for p, Initial residual = 2.67569e-05, Final residual = 2.41734e-06, No Iterations 20
time step continuity errors : sum local = 2.42799e-09, global = -5.51028e-12, cumulative = -1.41139e-08
DICPCG:  Solving for p, Initial residual = 8.07861e-06, Final residual = 6.31643e-07, No Iterations 3
DICPCG:  Solving for p, Initial residual = 6.31643e-07, Final residual = 6.31643e-07, No Iterations 0
time step continuity errors : sum local = 6.35479e-10, global = -1.54313e-11, cumulative = -1.41294e-08
DICPCG:  Solving for p, Initial residual = 7.69486e-07, Final residual = 7.69486e-07, No Iterations 0
DICPCG:  Solving for p, Initial residual = 7.69486e-07, Final residual = 7.69486e-07, No Iterations 0
time step continuity errors : sum local = 7.74159e-10, global = -1.59784e-11, cumulative = -1.41453e-08
ExecutionTime = 0.18 s  ClockTime = 0 s

Time = 1500

Courant Number mean: 0.00200514 max: 0.00264928

 Coupling...
Starting up LIGGGHTS
Executing command: 'run 100    '
Setting up run at Wed Mar 15 13:36:55 2023

Memory usage per processor = 6.77243 Mbytes
    Step    Atoms 
  351400      167 
  351500      167 
Loop time of 0.00612472 on 4 procs for 100 steps with 167 atoms, finish time Wed Mar 15 13:36:55 2023


Pair  time (%) = 0.00184333 (30.0966)
Neigh time (%) = 0 (0)
Comm  time (%) = 0.000546651 (8.92534)
Outpt time (%) = 3.27058e-05 (0.533996)
Other time (%) = 0.00370202 (60.444)

Nlocal:    41.75 ave 94 max 0 min
Histogram: 2 0 0 0 0 0 0 1 0 1
Nghost:    186.25 ave 384 max 0 min
Histogram: 2 0 0 0 0 0 0 0 0 2
Neighs:    1079.5 ave 2382 max 0 min
Histogram: 2 0 0 0 0 0 0 0 1 1

Total # of neighbors = 4318
Ave neighs/atom = 25.8563
Neighbor list builds = 0
Dangerous builds = 0
Executing command: 'write_restart ../DEM/liggghts.restartCFDEM'
System init for write_restart ...
LIGGGHTS finished

 timeStepFraction() = 1
[3] cellI = 81
[3] index = 1
[3] Us = (8.88686e-06 -1.39092e-05 1.63253e-05)
[3] Ur = (-1.98997e-05 0.000216086 -0.00181537)
[3] dprim = 200
[3] phi = 1
[3] rho = 1
[3] nuf = 1
[3] voidfraction = 0.424493
[3] Rep = 0
[3] betaP = 0.00510007
[3] drag = (-0.42512 4.61626 -38.7819)
[0] cellI = 81
[0] index = 0
[0] Us = (3.37946e-06 -8.38906e-07 3.19277e-05)
[0] Ur = (-0.000112618 5.29046e-05 -0.00202276)
[0] dprim = 200
[0] phi = 1
[0] rho = 1
[0] nuf = 1
[0] voidfraction = 0.401334
[0] Rep = 0
[0] betaP = 0.00561158
[0] drag = (-2.64717 1.24356 -47.5465)

Solver level total Eulerian momentum exchange:
  TotalForceImp:  (303.818 534.819 9445.71)
  Warning, these values are based on latest Ksl and Us but prev. iteration U!

DILUPBiCG:  Solving for Ux, Initial residual = 0.142744, Final residual = 3.02723e-05, No Iterations 1
DILUPBiCG:  Solving for Uy, Initial residual = 0.0648844, Final residual = 1.69375e-05, No Iterations 1
DILUPBiCG:  Solving for Uz, Initial residual = 0.0263753, Final residual = 6.6666e-06, No Iterations 1
DICPCG:  Solving for p, Initial residual = 0.0172154, Final residual = 0.000771372, No Iterations 22
DICPCG:  Solving for p, Initial residual = 0.000617543, Final residual = 2.71712e-05, No Iterations 4
time step continuity errors : sum local = 3.42114e-08, global = -2.05721e-09, cumulative = -1.62026e-08
DICPCG:  Solving for p, Initial residual = 0.000306143, Final residual = 2.6959e-05, No Iterations 11
DICPCG:  Solving for p, Initial residual = 2.69503e-05, Final residual = 9.17512e-07, No Iterations 22
time step continuity errors : sum local = 1.15565e-09, global = 2.50394e-11, cumulative = -1.61775e-08
DICPCG:  Solving for p, Initial residual = 6.03001e-06, Final residual = 6.58985e-07, No Iterations 3
DICPCG:  Solving for p, Initial residual = 6.58985e-07, Final residual = 6.58985e-07, No Iterations 0
time step continuity errors : sum local = 8.27282e-10, global = 1.61396e-10, cumulative = -1.60161e-08
DICPCG:  Solving for p, Initial residual = 7.83762e-07, Final residual = 7.83762e-07, No Iterations 0
DICPCG:  Solving for p, Initial residual = 7.83762e-07, Final residual = 7.83762e-07, No Iterations 0
time step continuity errors : sum local = 9.83925e-10, global = 1.68237e-10, cumulative = -1.58479e-08
ExecutionTime = 0.19 s  ClockTime = 0 s

Time = 1600

Courant Number mean: 0.00200517 max: 0.00263262

 Coupling...
Starting up LIGGGHTS
Executing command: 'run 100    '
Setting up run at Wed Mar 15 13:36:55 2023

Memory usage per processor = 6.77243 Mbytes
    Step    Atoms 
  351500      167 
  351600      167 
Loop time of 0.00609743 on 4 procs for 100 steps with 167 atoms, finish time Wed Mar 15 13:36:55 2023


Pair  time (%) = 0.00183496 (30.094)
Neigh time (%) = 0 (0)
Comm  time (%) = 0.000544091 (8.92329)
Outpt time (%) = 3.24545e-05 (0.532265)
Other time (%) = 0.00368593 (60.4505)

Nlocal:    41.75 ave 94 max 0 min
Histogram: 2 0 0 0 0 0 0 1 0 1
Nghost:    186.25 ave 384 max 0 min
Histogram: 2 0 0 0 0 0 0 0 0 2
Neighs:    1079.5 ave 2382 max 0 min
Histogram: 2 0 0 0 0 0 0 0 1 1

Total # of neighbors = 4318
Ave neighs/atom = 25.8563
Neighbor list builds = 0
Dangerous builds = 0
Executing command: 'write_restart ../DEM/liggghts.restartCFDEM'
System init for write_restart ...
LIGGGHTS finished

 timeStepFraction() = 1
[3] cellI = 81
[3] index = 1
[3] Us = (2.46258e-06 -1.41118e-06 1.1219e-05)
[0] cellI = 81
[0] index = 0
[0] Us = (-9.60872e-06 4.24474e-06 7.88142e-06)
[0] Ur = (-9.62542e-05 5.17642e-05 -0.00206833)
[0] dprim = 200
[0] phi = 1
[0] rho = 1
[0] nuf = 1
[0] voidfraction = 0.401336
[0] Rep = 0
[0] betaP = 0.00561191
[3] Ur = (-1.43743e-06 0.000211954 -0.00189303)
[3] dprim = 200
[3] phi = 1
[3] rho = 1
[3] nuf = 1
[3] voidfraction = 0.424488
[3] Rep = 0
[3] betaP = 0.00510084
[0] drag = (-2.26266 1.21683 -48.6205)
[3] drag = (-0.0307126 4.52867 -40.447)

Solver level total Eulerian momentum exchange:
  TotalForceImp:  (-164.5 796.896 10013.6)
  Warning, these values are based on latest Ksl and Us but prev. iteration U!

DILUPBiCG:  Solving for Ux, Initial residual = 0.0944757, Final residual = 1.95378e-05, No Iterations 1
DILUPBiCG:  Solving for Uy, Initial residual = 0.100787, Final residual = 1.10715e-05, No Iterations 1
DILUPBiCG:  Solving for Uz, Initial residual = 0.0142257, Final residual = 3.89392e-06, No Iterations 1
DICPCG:  Solving for p, Initial residual = 0.0064385, Final residual = 0.000616415, No Iterations 3
DICPCG:  Solving for p, Initial residual = 0.000615858, Final residual = 3.71596e-05, No Iterations 22
time step continuity errors : sum local = 4.69292e-08, global = 2.48646e-09, cumulative = -1.33614e-08
DICPCG:  Solving for p, Initial residual = 0.000176384, Final residual = 1.29376e-05, No Iterations 11
DICPCG:  Solving for p, Initial residual = 1.29362e-05, Final residual = 6.02067e-07, No Iterations 21
time step continuity errors : sum local = 7.96452e-10, global = 5.55185e-12, cumulative = -1.33559e-08
DICPCG:  Solving for p, Initial residual = 3.8366e-06, Final residual = 9.5934e-07, No Iterations 1
DICPCG:  Solving for p, Initial residual = 9.5934e-07, Final residual = 9.5934e-07, No Iterations 0
time step continuity errors : sum local = 1.26728e-09, global = -6.73192e-11, cumulative = -1.34232e-08
DICPCG:  Solving for p, Initial residual = 1.022e-06, Final residual = 5.2547e-07, No Iterations 1
DICPCG:  Solving for p, Initial residual = 5.2547e-07, Final residual = 5.2547e-07, No Iterations 0
time step continuity errors : sum local = 6.94141e-10, global = -3.44978e-11, cumulative = -1.34577e-08
ExecutionTime = 0.2 s  ClockTime = 0 s

Time = 1700

Courant Number mean: 0.00200536 max: 0.00265556

 Coupling...
Starting up LIGGGHTS
Executing command: 'run 100    '
Setting up run at Wed Mar 15 13:36:55 2023

Memory usage per processor = 6.77243 Mbytes
    Step    Atoms 
  351600      167 
  351700      167 
Loop time of 0.00614054 on 4 procs for 100 steps with 167 atoms, finish time Wed Mar 15 13:36:55 2023


Pair  time (%) = 0.00184349 (30.0216)
Neigh time (%) = 0 (0)
Comm  time (%) = 0.000548615 (8.93431)
Outpt time (%) = 3.26272e-05 (0.531342)
Other time (%) = 0.00371581 (60.5128)

Nlocal:    41.75 ave 94 max 0 min
Histogram: 2 0 0 0 0 0 0 1 0 1
Nghost:    186.25 ave 384 max 0 min
Histogram: 2 0 0 0 0 0 0 0 0 2
Neighs:    1079.5 ave 2382 max 0 min
Histogram: 2 0 0 0 0 0 0 0 1 1

Total # of neighbors = 4318
Ave neighs/atom = 25.8563
Neighbor list builds = 0
Dangerous builds = 0
Executing command: 'write_restart ../DEM/liggghts.restartCFDEM'
System init for write_restart ...
LIGGGHTS finished

 timeStepFraction() = 1
[0] cellI = 81
[0] index = 0
[3] cellI = 81
[3] index = 1
[0] Us = (-4.89871e-06 -4.52393e-06 -1.15698e-05)
[0] Ur = (-0.000112408 6.62934e-05 -0.0020794)
[3] Us = (-1.80387e-05 6.80169e-06 -7.07274e-06)
[3] Ur = (1.14092e-05 0.000212061 -0.0019137)
[3] dprim = 200
[3] phi = 1
[3] rho = 1
[3] nuf = 1
[3] voidfraction = 0.42449
[3] Rep = 0
[3] betaP = 0.00510098
[3] drag = (0.243779 4.53109 -40.8899)
[0] dprim = 200
[0] phi = 1
[0] rho = 1
[0] nuf = 1
[0] voidfraction = 0.401335
[0] Rep = 0
[0] betaP = 0.00561205
[0] drag = (-2.64245 1.55841 -48.8819)

Solver level total Eulerian momentum exchange:
  TotalForceImp:  (-496.708 245.938 8783.3)
  Warning, these values are based on latest Ksl and Us but prev. iteration U!

DILUPBiCG:  Solving for Ux, Initial residual = 0.153092, Final residual = 1.24078e-05, No Iterations 1
DILUPBiCG:  Solving for Uy, Initial residual = 0.0830464, Final residual = 8.26955e-06, No Iterations 1
DILUPBiCG:  Solving for Uz, Initial residual = 0.0116447, Final residual = 3.80052e-06, No Iterations 1
DICPCG:  Solving for p, Initial residual = 0.00861815, Final residual = 0.000501484, No Iterations 22
DICPCG:  Solving for p, Initial residual = 0.000562918, Final residual = 4.65806e-05, No Iterations 3
time step continuity errors : sum local = 5.47153e-08, global = 6.26031e-09, cumulative = -7.19738e-09
DICPCG:  Solving for p, Initial residual = 0.000259466, Final residual = 1.94953e-05, No Iterations 10
DICPCG:  Solving for p, Initial residual = 1.95017e-05, Final residual = 1.66689e-06, No Iterations 18
time step continuity errors : sum local = 1.95625e-09, global = 5.14533e-10, cumulative = -6.68285e-09
DICPCG:  Solving for p, Initial residual = 6.07534e-06, Final residual = 7.97836e-07, No Iterations 9
DICPCG:  Solving for p, Initial residual = 7.97842e-07, Final residual = 7.97842e-07, No Iterations 0
time step continuity errors : sum local = 9.37984e-10, global = -1.73742e-10, cumulative = -6.85659e-09
DICPCG:  Solving for p, Initial residual = 9.58255e-07, Final residual = 9.58255e-07, No Iterations 0
DICPCG:  Solving for p, Initial residual = 9.58255e-07, Final residual = 9.58255e-07, No Iterations 0
time step continuity errors : sum local = 1.12657e-09, global = -2.03634e-10, cumulative = -7.06023e-09
ExecutionTime = 0.21 s  ClockTime = 0 s

Time = 1800

Courant Number mean: 0.00200548 max: 0.00267757

 Coupling...
Starting up LIGGGHTS
Executing command: 'run 100    '
Setting up run at Wed Mar 15 13:36:55 2023

Memory usage per processor = 6.77243 Mbytes
    Step    Atoms 
  351700      167 
  351800      167 
Loop time of 0.00611378 on 4 procs for 100 steps with 167 atoms, finish time Wed Mar 15 13:36:55 2023


Pair  time (%) = 0.00183675 (30.0428)
Neigh time (%) = 0 (0)
Comm  time (%) = 0.000549742 (8.99185)
Outpt time (%) = 3.2673e-05 (0.534416)
Other time (%) = 0.00369462 (60.431)

Nlocal:    41.75 ave 94 max 0 min
Histogram: 2 0 0 0 0 0 0 1 0 1
Nghost:    186.25 ave 384 max 0 min
Histogram: 2 0 0 0 0 0 0 0 0 2
Neighs:    1079.5 ave 2382 max 0 min
Histogram: 2 0 0 0 0 0 0 0 1 1

Total # of neighbors = 4318
Ave neighs/atom = 25.8563
Neighbor list builds = 0
Dangerous builds = 0
Executing command: 'write_restart ../DEM/liggghts.restartCFDEM'
System init for write_restart ...
LIGGGHTS finished

 timeStepFraction() = 1
[3] cellI = 81
[3] index = 1
[0] cellI = 81
[0] index = 0
[0] Us = (5.11072e-06 8.07575e-07 -7.07691e-06)
[0] Ur = (-0.000133085 5.32575e-05 -0.00195816)
[0] dprim = 200
[0] phi = 1
[0] rho = 1
[0] nuf = 1
[0] voidfraction = 0.401329
[3] Us = (1.50093e-06 2.85659e-06 -4.34935e-06)
[3] Ur = (-1.69446e-05 0.000207207 -0.00181841)
[3] dprim = 200
[3] phi = 1
[3] rho = 1
[3] nuf = 1
[3] voidfraction = 0.424487
[3] Rep = 0
[3] betaP = 0.00510022
[3] drag = (-0.361999 4.42672 -38.8479)
[0] Rep = 0
[0] betaP = 0.00561112
[0] drag = (-3.12802 1.25175 -46.0242)

Solver level total Eulerian momentum exchange:
  TotalForceImp:  (750.654 437.652 7270.42)
  Warning, these values are based on latest Ksl and Us but prev. iteration U!

DILUPBiCG:  Solving for Ux, Initial residual = 0.150112, Final residual = 1.11794e-05, No Iterations 1
DILUPBiCG:  Solving for Uy, Initial residual = 0.0926475, Final residual = 9.32145e-06, No Iterations 1
DILUPBiCG:  Solving for Uz, Initial residual = 0.0104106, Final residual = 2.44698e-06, No Iterations 1
DICPCG:  Solving for p, Initial residual = 0.0239052, Final residual = 0.00238464, No Iterations 16
DICPCG:  Solving for p, Initial residual = 0.00247381, Final residual = 0.000107577, No Iterations 22
time step continuity errors : sum local = 1.22365e-07, global = -1.46182e-09, cumulative = -8.52205e-09
DICPCG:  Solving for p, Initial residual = 0.000911039, Final residual = 8.92313e-05, No Iterations 10
DICPCG:  Solving for p, Initial residual = 8.92516e-05, Final residual = 5.17968e-06, No Iterations 22
time step continuity errors : sum local = 4.23139e-09, global = 4.65022e-12, cumulative = -8.5174e-09
DICPCG:  Solving for p, Initial residual = 2.33905e-05, Final residual = 1.91888e-06, No Iterations 3
DICPCG:  Solving for p, Initial residual = 1.91889e-06, Final residual = 9.93135e-07, No Iterations 19
time step continuity errors : sum local = 8.17347e-10, global = -2.69139e-11, cumulative = -8.54432e-09
DICPCG:  Solving for p, Initial residual = 1.37976e-06, Final residual = 4.25178e-07, No Iterations 1
DICPCG:  Solving for p, Initial residual = 4.25178e-07, Final residual = 4.25178e-07, No Iterations 0
time step continuity errors : sum local = 3.49976e-10, global = -2.02548e-11, cumulative = -8.56457e-09
ExecutionTime = 0.22 s  ClockTime = 0 s

Time = 1900

Courant Number mean: 0.00200549 max: 0.00265827

 Coupling...
Starting up LIGGGHTS
Executing command: 'run 100    '
Setting up run at Wed Mar 15 13:36:55 2023

Memory usage per processor = 6.77243 Mbytes
    Step    Atoms 
  351800      167 
  351900      167 
Loop time of 0.00611751 on 4 procs for 100 steps with 167 atoms, finish time Wed Mar 15 13:36:55 2023


Pair  time (%) = 0.00184173 (30.1059)
Neigh time (%) = 0 (0)
Comm  time (%) = 0.000548524 (8.96646)
Outpt time (%) = 3.23618e-05 (0.529002)
Other time (%) = 0.00369489 (60.3986)

Nlocal:    41.75 ave 94 max 0 min
Histogram: 2 0 0 0 0 0 0 1 0 1
Nghost:    186.25 ave 384 max 0 min
Histogram: 2 0 0 0 0 0 0 0 0 2
Neighs:    1079.5 ave 2382 max 0 min
Histogram: 2 0 0 0 0 0 0 0 1 1

Total # of neighbors = 4318
Ave neighs/atom = 25.8563
Neighbor list builds = 0
Dangerous builds = 0
Executing command: 'write_restart ../DEM/liggghts.restartCFDEM'
System init for write_restart ...
LIGGGHTS finished

 timeStepFraction() = 1
[3] cellI = 81
[3] index = 1
[0] cellI = 81
[0] index = 0
[0] Us = (1.33526e-06 1.82663e-06 -1.91778e-06)
[0] Ur = (-9.42147e-05 2.47628e-05 -0.0019176)
[0] dprim = 200
[0] phi = 1
[0] rho = 1
[3] Us = (6.99984e-06 -2.21078e-06 -2.97323e-06)
[3] Ur = (3.57656e-05 0.000192133 -0.00173262)
[3] dprim = 200
[3] phi = 1
[3] rho = 1
[0] nuf = 1
[0] voidfraction = 0.401337
[0] Rep = 0
[0] betaP = 0.00561058
[3] nuf = 1
[3] voidfraction = 0.424494
[3] Rep = 0
[3] betaP = 0.0050993
[3] drag = (0.763949 4.10393 -37.0087)
[0] drag = (-2.21419 0.581964 -45.0666)

Solver level total Eulerian momentum exchange:
  TotalForceImp:  (428.072 595.898 8264.76)
  Warning, these values are based on latest Ksl and Us but prev. iteration U!

DILUPBiCG:  Solving for Ux, Initial residual = 0.187684, Final residual = 6.4685e-05, No Iterations 1
DILUPBiCG:  Solving for Uy, Initial residual = 0.171655, Final residual = 6.20095e-05, No Iterations 1
DILUPBiCG:  Solving for Uz, Initial residual = 0.0223344, Final residual = 5.9358e-06, No Iterations 1
DICPCG:  Solving for p, Initial residual = 0.035744, Final residual = 0.00357016, No Iterations 12
DICPCG:  Solving for p, Initial residual = 0.00353889, Final residual = 0.00029154, No Iterations 22
time step continuity errors : sum local = 2.38165e-07, global = 2.04926e-08, cumulative = 1.1928e-08
DICPCG:  Solving for p, Initial residual = 0.000874125, Final residual = 8.54989e-05, No Iterations 2
DICPCG:  Solving for p, Initial residual = 8.55144e-05, Final residual = 2.83087e-06, No Iterations 22
time step continuity errors : sum local = 3.28352e-09, global = -1.80775e-10, cumulative = 1.17473e-08
DICPCG:  Solving for p, Initial residual = 2.51426e-05, Final residual = 2.09834e-06, No Iterations 3
DICPCG:  Solving for p, Initial residual = 2.09835e-06, Final residual = 9.93511e-07, No Iterations 2
time step continuity errors : sum local = 1.14727e-09, global = -1.11944e-11, cumulative = 1.17361e-08
DICPCG:  Solving for p, Initial residual = 1.28052e-06, Final residual = 5.75803e-07, No Iterations 1
DICPCG:  Solving for p, Initial residual = 5.75803e-07, Final residual = 5.75803e-07, No Iterations 0
time step continuity errors : sum local = 6.64917e-10, global = 1.17462e-11, cumulative = 1.17478e-08
ExecutionTime = 0.23 s  ClockTime = 0 s

Time = 2000

Courant Number mean: 0.00200516 max: 0.00270716

 Coupling...
Starting up LIGGGHTS
Executing command: 'run 100    '
Setting up run at Wed Mar 15 13:36:55 2023

Memory usage per processor = 6.77243 Mbytes
    Step    Atoms 
  351900      167 
  352000      167 
Loop time of 0.00616791 on 4 procs for 100 steps with 167 atoms, finish time Wed Mar 15 13:36:55 2023


Pair  time (%) = 0.00185522 (30.0786)
Neigh time (%) = 0 (0)
Comm  time (%) = 0.000546121 (8.85423)
Outpt time (%) = 3.25e-05 (0.526921)
Other time (%) = 0.00373406 (60.5402)

Nlocal:    41.75 ave 94 max 0 min
Histogram: 2 0 0 0 0 0 0 1 0 1
Nghost:    186.25 ave 384 max 0 min
Histogram: 2 0 0 0 0 0 0 0 0 2
Neighs:    1079.5 ave 2382 max 0 min
Histogram: 2 0 0 0 0 0 0 0 1 1

Total # of neighbors = 4318
Ave neighs/atom = 25.8563
Neighbor list builds = 0
Dangerous builds = 0
Executing command: 'write_restart ../DEM/liggghts.restartCFDEM'
System init for write_restart ...
LIGGGHTS finished

 timeStepFraction() = 1
[3] cellI = 81
[3] index = 1
[3] Us = (3.26697e-05 -2.22888e-05 8.77008e-05)
[3] Ur = (-2.2628e-05 0.000225703 -0.00187506)
[3] dprim = 200
[0] cellI = 81
[0] index = 0
[0] Us = (-3.49286e-06 -3.68958e-05 9.40275e-05)
[0] Ur = (-0.000105944 8.03482e-05 -0.00205717)
[0] dprim = 200
[0] phi = 1
[0] rho = 1
[0] nuf = 1
[0] voidfraction = 0.404131
[0] Rep = 0
[0] betaP = 0.00554721
[3] phi = 1
[3] rho = 1
[3] nuf = 1
[3] voidfraction = 0.425251
[3] Rep = 0
[3] betaP = 0.00508486
[0] drag = (-2.46173 1.86698 -47.8006)
[3] drag = (-0.481962 4.80734 -39.9376)

Solver level total Eulerian momentum exchange:
  TotalForceImp:  (202.527 370.158 10589.2)
  Warning, these values are based on latest Ksl and Us but prev. iteration U!

DILUPBiCG:  Solving for Ux, Initial residual = 0.194301, Final residual = 6.29082e-05, No Iterations 1
DILUPBiCG:  Solving for Uy, Initial residual = 0.124134, Final residual = 4.08242e-05, No Iterations 1
DILUPBiCG:  Solving for Uz, Initial residual = 0.0475735, Final residual = 1.34569e-05, No Iterations 1
DICPCG:  Solving for p, Initial residual = 0.0206305, Final residual = 0.00142423, No Iterations 22
DICPCG:  Solving for p, Initial residual = 0.00112979, Final residual = 7.6108e-05, No Iterations 4
time step continuity errors : sum local = 1.11947e-07, global = -2.80377e-09, cumulative = 8.94404e-09
DICPCG:  Solving for p, Initial residual = 0.000450498, Final residual = 4.44388e-05, No Iterations 10
DICPCG:  Solving for p, Initial residual = 4.44065e-05, Final residual = 2.42449e-06, No Iterations 16
time step continuity errors : sum local = 3.56734e-09, global = -7.69052e-11, cumulative = 8.86714e-09
DICPCG:  Solving for p, Initial residual = 1.1564e-05, Final residual = 1.0028e-06, No Iterations 5
DICPCG:  Solving for p, Initial residual = 1.00281e-06, Final residual = 7.87304e-07, No Iterations 1
time step continuity errors : sum local = 1.15425e-09, global = 3.72956e-10, cumulative = 9.2401e-09
DICPCG:  Solving for p, Initial residual = 1.01968e-06, Final residual = 5.60797e-07, No Iterations 1
DICPCG:  Solving for p, Initial residual = 5.60797e-07, Final residual = 5.60797e-07, No Iterations 0
time step continuity errors : sum local = 8.2217e-10, global = 4.04511e-10, cumulative = 9.64461e-09
ExecutionTime = 0.25 s  ClockTime = 0 s

Time = 2100

Courant Number mean: 0.00200546 max: 0.00265946

 Coupling...
Starting up LIGGGHTS
Executing command: 'run 100    '
Setting up run at Wed Mar 15 13:36:55 2023

Memory usage per processor = 6.77243 Mbytes
    Step    Atoms 
  352000      167 
  352100      167 
Loop time of 0.00615602 on 4 procs for 100 steps with 167 atoms, finish time Wed Mar 15 13:36:55 2023


Pair  time (%) = 0.00187377 (30.438)
Neigh time (%) = 0 (0)
Comm  time (%) = 0.000547687 (8.89677)
Outpt time (%) = 3.33113e-05 (0.541117)
Other time (%) = 0.00370125 (60.1241)

Nlocal:    41.75 ave 94 max 0 min
Histogram: 2 0 0 0 0 0 0 1 0 1
Nghost:    186.25 ave 384 max 0 min
Histogram: 2 0 0 0 0 0 0 0 0 2
Neighs:    1079.5 ave 2382 max 0 min
Histogram: 2 0 0 0 0 0 0 0 1 1

Total # of neighbors = 4318
Ave neighs/atom = 25.8563
Neighbor list builds = 0
Dangerous builds = 0
Executing command: 'write_restart ../DEM/liggghts.restartCFDEM'
System init for write_restart ...
LIGGGHTS finished

 timeStepFraction() = 1
[0] cellI = 81
[0] index = 0
[0] Us = (-1.84188e-05 6.89844e-05 -8.73019e-05)
[0] Ur = (-9.87718e-05 -2.04897e-05 -0.00200462)
[0] dprim = 200
[0] phi = 1
[0] rho = 1
[0] nuf = 1
[0] voidfraction = 0.404128
[0] Rep = 0
[0] betaP = 0.00554681
[0] drag = (-2.2949 -0.476066 -46.5761)
[3] cellI = 81
[3] index = 1
[3] Us = (-7.57085e-05 2.85929e-05 -9.86313e-05)
[3] Ur = (8.69542e-05 0.000186669 -0.00184363)
[3] dprim = 200
[3] phi = 1
[3] rho = 1
[3] nuf = 1
[3] voidfraction = 0.425257
[3] Rep = 0
[3] betaP = 0.00508443
[3] drag = (1.85192 3.9756 -39.265)

Solver level total Eulerian momentum exchange:
  TotalForceImp:  (-525.031 406.124 7793.48)
  Warning, these values are based on latest Ksl and Us but prev. iteration U!

DILUPBiCG:  Solving for Ux, Initial residual = 0.250149, Final residual = 4.39005e-05, No Iterations 1
DILUPBiCG:  Solving for Uy, Initial residual = 0.176942, Final residual = 3.5538e-05, No Iterations 1
DILUPBiCG:  Solving for Uz, Initial residual = 0.0512627, Final residual = 1.3768e-05, No Iterations 1
DICPCG:  Solving for p, Initial residual = 0.0123723, Final residual = 0.000840981, No Iterations 22
DICPCG:  Solving for p, Initial residual = 0.00109119, Final residual = 4.83515e-05, No Iterations 4
time step continuity errors : sum local = 5.45777e-08, global = 6.05253e-09, cumulative = 1.56971e-08
DICPCG:  Solving for p, Initial residual = 0.00054983, Final residual = 5.44798e-05, No Iterations 10
DICPCG:  Solving for p, Initial residual = 5.45013e-05, Final residual = 5.22441e-06, No Iterations 21
time step continuity errors : sum local = 5.88639e-09, global = -5.08053e-10, cumulative = 1.51891e-08
DICPCG:  Solving for p, Initial residual = 1.16896e-05, Final residual = 9.93896e-07, No Iterations 8
DICPCG:  Solving for p, Initial residual = 9.93878e-07, Final residual = 9.93878e-07, No Iterations 0
time step continuity errors : sum local = 1.12475e-09, global = -5.04837e-10, cumulative = 1.46842e-08
DICPCG:  Solving for p, Initial residual = 1.19395e-06, Final residual = 6.92698e-07, No Iterations 1
DICPCG:  Solving for p, Initial residual = 6.92697e-07, Final residual = 6.92697e-07, No Iterations 0
time step continuity errors : sum local = 7.83914e-10, global = -5.10359e-10, cumulative = 1.41739e-08
ExecutionTime = 0.26 s  ClockTime = 0 s

Time = 2200

Courant Number mean: 0.00200535 max: 0.00266751

 Coupling...
Starting up LIGGGHTS
Executing command: 'run 100    '
Setting up run at Wed Mar 15 13:36:55 2023

Memory usage per processor = 6.77243 Mbytes
    Step    Atoms 
  352100      167 
  352200      167 
Loop time of 0.0061068 on 4 procs for 100 steps with 167 atoms, finish time Wed Mar 15 13:36:55 2023


Pair  time (%) = 0.00184046 (30.1379)
Neigh time (%) = 0 (0)
Comm  time (%) = 0.000548195 (8.97681)
Outpt time (%) = 3.17192e-05 (0.519409)
Other time (%) = 0.00368642 (60.3658)

Nlocal:    41.75 ave 94 max 0 min
Histogram: 2 0 0 0 0 0 0 1 0 1
Nghost:    186.25 ave 384 max 0 min
Histogram: 2 0 0 0 0 0 0 0 0 2
Neighs:    1079.5 ave 2382 max 0 min
Histogram: 2 0 0 0 0 0 0 0 1 1

Total # of neighbors = 4318
Ave neighs/atom = 25.8563
Neighbor list builds = 0
Dangerous builds = 0
Executing command: 'write_restart ../DEM/liggghts.restartCFDEM'
System init for write_restart ...
LIGGGHTS finished

 timeStepFraction() = 1
[0] cellI = 81
[0] index = 0
[0] Us = (3.88959e-06 3.51175e-06 -9.98328e-06)
[0] Ur = (-0.000149728 6.37655e-05 -0.00202713)
[0] dprim = 200
[0] phi = 1
[0] rho = 1
[0] nuf = 1
[0] voidfraction = 0.401328
[0] Rep = 0
[0] betaP = 0.00561178
[0] drag = (-3.5196 1.49891 -47.6509)
[3] cellI = 81
[3] index = 1
[3] Us = (1.72345e-05 1.77434e-05 2.90486e-05)
[3] Ur = (-4.26747e-05 0.000199653 -0.00186342)
[3] dprim = 200
[3] phi = 1
[3] rho = 1
[3] nuf = 1
[3] voidfraction = 0.42447
[3] Rep = 0
[3] betaP = 0.00510095
[3] drag = (-0.911823 4.26594 -39.8154)

Solver level total Eulerian momentum exchange:
  TotalForceImp:  (705.386 -18.0837 7106.25)
  Warning, these values are based on latest Ksl and Us but prev. iteration U!

DILUPBiCG:  Solving for Ux, Initial residual = 0.181895, Final residual = 2.68791e-05, No Iterations 1
DILUPBiCG:  Solving for Uy, Initial residual = 0.14457, Final residual = 2.13026e-05, No Iterations 1
DILUPBiCG:  Solving for Uz, Initial residual = 0.0499483, Final residual = 1.36275e-05, No Iterations 1
DICPCG:  Solving for p, Initial residual = 0.017587, Final residual = 0.0017342, No Iterations 4
DICPCG:  Solving for p, Initial residual = 0.00171648, Final residual = 0.000123853, No Iterations 21
time step continuity errors : sum local = 1.40678e-07, global = -9.01923e-09, cumulative = 5.15465e-09
DICPCG:  Solving for p, Initial residual = 0.000752244, Final residual = 6.74526e-05, No Iterations 3
DICPCG:  Solving for p, Initial residual = 6.74891e-05, Final residual = 3.67518e-06, No Iterations 22
time step continuity errors : sum local = 3.6262e-09, global = -1.03379e-11, cumulative = 5.14431e-09
[...]
time step continuity errors : sum local = 9.31562e-10, global = 2.99452e-11, cumulative = -8.51521e-08
ExecutionTime = 1.08 s  ClockTime = 1 s

Time = 9500

Courant Number mean: 0.00200548 max: 0.00268201

 Coupling...
Starting up LIGGGHTS
Executing command: 'run 100    '
Setting up run at Wed Mar 15 13:36:56 2023

Memory usage per processor = 6.77243 Mbytes
    Step    Atoms 
  359400      167 
  359500      167 
Loop time of 0.00597313 on 4 procs for 100 steps with 167 atoms, finish time Wed Mar 15 13:36:56 2023


Pair  time (%) = 0.00183784 (30.7685)
Neigh time (%) = 0 (0)
Comm  time (%) = 0.00049873 (8.34955)
Outpt time (%) = 3.1075e-05 (0.520247)
Other time (%) = 0.00360548 (60.3617)

Nlocal:    41.75 ave 94 max 0 min
Histogram: 2 0 0 0 0 0 0 1 0 1
Nghost:    186.25 ave 384 max 0 min
Histogram: 2 0 0 0 0 0 0 0 0 2
Neighs:    1080.5 ave 2386 max 0 min
Histogram: 2 0 0 0 0 0 0 0 1 1

Total # of neighbors = 4322
Ave neighs/atom = 25.8802
Neighbor list builds = 0
Dangerous builds = 0
Executing command: 'write_restart ../DEM/liggghts.restartCFDEM'
System init for write_restart ...
LIGGGHTS finished

 timeStepFraction() = 1
[3] cellI = 81
[3] index = 1
[3] Us = (4.88697e-06 3.60502e-05 -0.0001039)
[3] Ur = (1.22447e-05 0.000180569 -0.00181554)
[3] dprim = 200
[3] phi = 1
[3] rho = 1
[3] nuf = 1
[3] voidfraction = 0.425223
[3] Rep = 0
[3] betaP = 0.00508487
[3] drag = (0.260805 3.84602 -38.67)
[0] cellI = 81
[0] index = 0
[0] Us = (-8.94655e-06 -7.16436e-06 -0.000158803)
[0] Ur = (-0.000126138 5.41936e-05 -0.00191455)
[0] dprim = 200
[0] phi = 1
[0] rho = 1
[0] nuf = 1
[0] voidfraction = 0.404093
[0] Rep = 0
[0] betaP = 0.00554684
[0] drag = (-2.93077 1.25916 -44.4837)

Solver level total Eulerian momentum exchange:
  TotalForceImp:  (21.8164 524.165 5297.76)
  Warning, these values are based on latest Ksl and Us but prev. iteration U!

DILUPBiCG:  Solving for Ux, Initial residual = 0.230975, Final residual = 1.69544e-05, No Iterations 1
DILUPBiCG:  Solving for Uy, Initial residual = 0.107216, Final residual = 1.26718e-05, No Iterations 1
DILUPBiCG:  Solving for Uz, Initial residual = 0.0557912, Final residual = 1.34114e-05, No Iterations 1
DICPCG:  Solving for p, Initial residual = 0.0237813, Final residual = 0.00187122, No Iterations 22
DICPCG:  Solving for p, Initial residual = 0.00388804, Final residual = 0.000289598, No Iterations 3
time step continuity errors : sum local = 1.94504e-07, global = 1.87611e-08, cumulative = -6.63911e-08
DICPCG:  Solving for p, Initial residual = 0.00160252, Final residual = 0.000137075, No Iterations 11
DICPCG:  Solving for p, Initial residual = 0.000137157, Final residual = 1.22308e-05, No Iterations 22
time step continuity errors : sum local = 8.1823e-09, global = 3.59545e-10, cumulative = -6.60315e-08
DICPCG:  Solving for p, Initial residual = 3.74718e-05, Final residual = 3.20122e-06, No Iterations 5
DICPCG:  Solving for p, Initial residual = 3.20121e-06, Final residual = 6.45556e-07, No Iterations 19
time step continuity errors : sum local = 4.38886e-10, global = -4.89754e-11, cumulative = -6.60805e-08
DICPCG:  Solving for p, Initial residual = 1.51821e-06, Final residual = 4.09266e-07, No Iterations 1
DICPCG:  Solving for p, Initial residual = 4.09266e-07, Final residual = 4.09266e-07, No Iterations 0
time step continuity errors : sum local = 2.78342e-10, global = -6.13675e-11, cumulative = -6.61419e-08
ExecutionTime = 1.09 s  ClockTime = 1 s

Time = 9600

Courant Number mean: 0.00200504 max: 0.00282544

 Coupling...
Starting up LIGGGHTS
Executing command: 'run 100    '
Setting up run at Wed Mar 15 13:36:56 2023

Memory usage per processor = 6.77243 Mbytes
    Step    Atoms 
  359500      167 
  359600      167 
Loop time of 0.00595805 on 4 procs for 100 steps with 167 atoms, finish time Wed Mar 15 13:36:56 2023


Pair  time (%) = 0.00185404 (31.1183)
Neigh time (%) = 0 (0)
Comm  time (%) = 0.000490716 (8.23618)
Outpt time (%) = 3.0731e-05 (0.51579)
Other time (%) = 0.00358256 (60.1297)

Nlocal:    41.75 ave 94 max 0 min
Histogram: 2 0 0 0 0 0 0 1 0 1
Nghost:    186.25 ave 384 max 0 min
Histogram: 2 0 0 0 0 0 0 0 0 2
Neighs:    1080.5 ave 2386 max 0 min
Histogram: 2 0 0 0 0 0 0 0 1 1

Total # of neighbors = 4322
Ave neighs/atom = 25.8802
Neighbor list builds = 0
Dangerous builds = 0
Executing command: 'write_restart ../DEM/liggghts.restartCFDEM'
System init for write_restart ...
LIGGGHTS finished

 timeStepFraction() = 1
[3] cellI = 81
[3] index = 1
[3] Us = (-1.92041e-05 1.90609e-05 4.26225e-06)
[3] Ur = (1.35801e-05 0.000167016 -0.00172261)
[3] dprim = 200
[3] phi = 1
[3] rho = 1
[3] nuf = 1
[3] voidfraction = 0.424462
[3] Rep = 0
[3] betaP = 0.00509985
[3] drag = (0.2901 3.56783 -36.7988)
[0] cellI = 81
[0] index = 0
[0] Us = (5.07238e-06 1.46254e-05 2.47529e-05)
[0] Ur = (-0.000147513 1.20259e-05 -0.00191076)
[0] dprim = 200
[0] phi = 1
[0] rho = 1
[0] nuf = 1
[0] voidfraction = 0.401285
[0] Rep = 0
[0] betaP = 0.00561176
[0] drag = (-3.46751 0.282687 -44.9153)

Solver level total Eulerian momentum exchange:
  TotalForceImp:  (101.753 143.6 6723.44)
  Warning, these values are based on latest Ksl and Us but prev. iteration U!

DILUPBiCG:  Solving for Ux, Initial residual = 0.103709, Final residual = 2.50989e-05, No Iterations 1
DILUPBiCG:  Solving for Uy, Initial residual = 0.151261, Final residual = 5.4157e-05, No Iterations 1
DILUPBiCG:  Solving for Uz, Initial residual = 0.0740841, Final residual = 1.92822e-05, No Iterations 1
DICPCG:  Solving for p, Initial residual = 0.0503528, Final residual = 0.0047968, No Iterations 9
DICPCG:  Solving for p, Initial residual = 0.00462272, Final residual = 0.000445554, No Iterations 21
time step continuity errors : sum local = 3.10507e-07, global = -4.51429e-10, cumulative = -6.65933e-08
DICPCG:  Solving for p, Initial residual = 0.00117704, Final residual = 0.000101749, No Iterations 3
DICPCG:  Solving for p, Initial residual = 0.000101809, Final residual = 8.10103e-06, No Iterations 22
time step continuity errors : sum local = 8.14873e-09, global = -1.35334e-12, cumulative = -6.65946e-08
DICPCG:  Solving for p, Initial residual = 3.249e-05, Final residual = 3.16515e-06, No Iterations 3
DICPCG:  Solving for p, Initial residual = 3.1652e-06, Final residual = 6.72726e-07, No Iterations 3
time step continuity errors : sum local = 6.72574e-10, global = -1.17731e-11, cumulative = -6.66064e-08
DICPCG:  Solving for p, Initial residual = 1.13709e-06, Final residual = 3.91374e-07, No Iterations 1
DICPCG:  Solving for p, Initial residual = 3.91374e-07, Final residual = 3.91374e-07, No Iterations 0
time step continuity errors : sum local = 3.91285e-10, global = -2.60732e-11, cumulative = -6.66325e-08
ExecutionTime = 1.1 s  ClockTime = 1 s

Time = 9700

Courant Number mean: 0.00200459 max: 0.00267633

 Coupling...
Starting up LIGGGHTS
Executing command: 'run 100    '
Setting up run at Wed Mar 15 13:36:56 2023

Memory usage per processor = 6.77243 Mbytes
    Step    Atoms 
  359600      167 
  359700      167 
Loop time of 0.00596902 on 4 procs for 100 steps with 167 atoms, finish time Wed Mar 15 13:36:56 2023


Pair  time (%) = 0.00185466 (31.0714)
Neigh time (%) = 0 (0)
Comm  time (%) = 0.000493214 (8.2629)
Outpt time (%) = 3.1123e-05 (0.521409)
Other time (%) = 0.00359002 (60.1443)

Nlocal:    41.75 ave 94 max 0 min
Histogram: 2 0 0 0 0 0 0 1 0 1
Nghost:    186.25 ave 384 max 0 min
Histogram: 2 0 0 0 0 0 0 0 0 2
Neighs:    1080.5 ave 2386 max 0 min
Histogram: 2 0 0 0 0 0 0 0 1 1

Total # of neighbors = 4322
Ave neighs/atom = 25.8802
Neighbor list builds = 0
Dangerous builds = 0
Executing command: 'write_restart ../DEM/liggghts.restartCFDEM'
System init for write_restart ...
LIGGGHTS finished

 timeStepFraction() = 1
[3] cellI = 81
[3] index = 1
[3] Us = (4.97674e-06 -4.7235e-05 9.67406e-05)
[3] Ur = (-2.08384e-05 0.000244956 -0.00190376)
[3] dprim = 200
[3] phi = 1
[3] rho = 1
[3] nuf = 1
[3] voidfraction = 0.425281
[3] Rep = 0
[3] betaP = 0.00508449
[3] drag = (-0.443813 5.21705 -40.5461)
[0] cellI = 81
[0] index = 0
[0] Us = (1.00876e-05 5.75949e-06 0.000147675)
[0] Ur = (-0.000155767 2.58896e-05 -0.00209652)
[0] dprim = 200
[0] phi = 1
[0] rho = 1
[0] nuf = 1
[0] voidfraction = 0.404191
[0] Rep = 0
[0] betaP = 0.0055462
[0] drag = (-3.61875 0.601464 -48.706)

Solver level total Eulerian momentum exchange:
  TotalForceImp:  (172.002 447.362 10154.6)
  Warning, these values are based on latest Ksl and Us but prev. iteration U!

DILUPBiCG:  Solving for Ux, Initial residual = 0.148088, Final residual = 3.93095e-05, No Iterations 1
DILUPBiCG:  Solving for Uy, Initial residual = 0.0980326, Final residual = 2.66342e-05, No Iterations 1
DILUPBiCG:  Solving for Uz, Initial residual = 0.0600892, Final residual = 1.83195e-05, No Iterations 1
DICPCG:  Solving for p, Initial residual = 0.0217399, Final residual = 0.00211784, No Iterations 22
DICPCG:  Solving for p, Initial residual = 0.0014867, Final residual = 0.000101976, No Iterations 3
time step continuity errors : sum local = 1.4645e-07, global = -6.59405e-09, cumulative = -7.32265e-08
DICPCG:  Solving for p, Initial residual = 0.000517288, Final residual = 5.00093e-05, No Iterations 11
DICPCG:  Solving for p, Initial residual = 4.99726e-05, Final residual = 3.39394e-06, No Iterations 21
time step continuity errors : sum local = 4.87456e-09, global = 1.86539e-10, cumulative = -7.304e-08
DICPCG:  Solving for p, Initial residual = 1.33134e-05, Final residual = 1.10456e-06, No Iterations 7
DICPCG:  Solving for p, Initial residual = 1.10457e-06, Final residual = 6.49621e-07, No Iterations 1
time step continuity errors : sum local = 9.27263e-10, global = 5.39668e-10, cumulative = -7.25003e-08
DICPCG:  Solving for p, Initial residual = 9.4664e-07, Final residual = 9.4664e-07, No Iterations 0
DICPCG:  Solving for p, Initial residual = 9.4664e-07, Final residual = 9.4664e-07, No Iterations 0
time step continuity errors : sum local = 1.35123e-09, global = 5.55033e-10, cumulative = -7.19453e-08
ExecutionTime = 1.12 s  ClockTime = 1 s

Time = 9800

Courant Number mean: 0.00200516 max: 0.00267123

 Coupling...
Starting up LIGGGHTS
Executing command: 'run 100    '
Setting up run at Wed Mar 15 13:36:56 2023

Memory usage per processor = 6.77243 Mbytes
    Step    Atoms 
  359700      167 
  359800      167 
Loop time of 0.0059793 on 4 procs for 100 steps with 167 atoms, finish time Wed Mar 15 13:36:56 2023


Pair  time (%) = 0.00184948 (30.9314)
Neigh time (%) = 0 (0)
Comm  time (%) = 0.000491807 (8.22516)
Outpt time (%) = 3.13048e-05 (0.523552)
Other time (%) = 0.00360671 (60.3199)

Nlocal:    41.75 ave 94 max 0 min
Histogram: 2 0 0 0 0 0 0 1 0 1
Nghost:    186.25 ave 384 max 0 min
Histogram: 2 0 0 0 0 0 0 0 0 2
Neighs:    1080.5 ave 2386 max 0 min
Histogram: 2 0 0 0 0 0 0 0 1 1

Total # of neighbors = 4322
Ave neighs/atom = 25.8802
Neighbor list builds = 0
Dangerous builds = 0
Executing command: 'write_restart ../DEM/liggghts.restartCFDEM'
System init for write_restart ...
LIGGGHTS finished

 timeStepFraction() = 1
[0] cellI = 81
[0] index = 0
[0] Us = (-1.11755e-05 -3.91338e-05 -0.000131376)
[3] cellI = 81
[3] index = 1
[3] Us = (1.99675e-05 2.29057e-05 -7.74784e-05)
[3] Ur = (-6.61222e-06 0.000184051 -0.00183027)
[0] Ur = (-0.000135938 7.60244e-05 -0.00190027)
[0] dprim = 200
[0] phi = 1
[0] rho = 1
[0] nuf = 1
[3] dprim = 200
[3] phi = 1
[3] rho = 1
[3] nuf = 1
[3] voidfraction = 0.425226
[3] Rep = 0
[3] betaP = 0.00508494
[0] voidfraction = 0.404119
[0] Rep = 0
[0] betaP = 0.00554613
[0] drag = (-3.15805 1.76617 -44.1462)
[3] drag = (-0.140838 3.92025 -38.9842)

Solver level total Eulerian momentum exchange:
  TotalForceImp:  (-91.3955 430.821 9071.06)
  Warning, these values are based on latest Ksl and Us but prev. iteration U!

DILUPBiCG:  Solving for Ux, Initial residual = 0.128184, Final residual = 2.74884e-05, No Iterations 1
DILUPBiCG:  Solving for Uy, Initial residual = 0.121811, Final residual = 2.46689e-05, No Iterations 1
DILUPBiCG:  Solving for Uz, Initial residual = 0.0478073, Final residual = 1.28735e-05, No Iterations 1
DICPCG:  Solving for p, Initial residual = 0.0146488, Final residual = 0.000588301, No Iterations 22
DICPCG:  Solving for p, Initial residual = 0.000746049, Final residual = 7.40845e-05, No Iterations 3
time step continuity errors : sum local = 8.35013e-08, global = 2.69872e-09, cumulative = -6.92466e-08
DICPCG:  Solving for p, Initial residual = 0.000701347, Final residual = 6.53124e-05, No Iterations 3
DICPCG:  Solving for p, Initial residual = 6.53034e-05, Final residual = 2.88042e-06, No Iterations 22
time step continuity errors : sum local = 3.24527e-09, global = -1.30471e-11, cumulative = -6.92596e-08
DICPCG:  Solving for p, Initial residual = 1.37212e-05, Final residual = 1.25281e-06, No Iterations 3
DICPCG:  Solving for p, Initial residual = 1.25282e-06, Final residual = 7.21201e-07, No Iterations 1
time step continuity errors : sum local = 8.14795e-10, global = -7.33158e-11, cumulative = -6.93329e-08
DICPCG:  Solving for p, Initial residual = 1.0674e-06, Final residual = 5.80462e-07, No Iterations 1
DICPCG:  Solving for p, Initial residual = 5.80461e-07, Final residual = 5.80461e-07, No Iterations 0
time step continuity errors : sum local = 6.55791e-10, global = -1.04482e-10, cumulative = -6.94374e-08
ExecutionTime = 1.13 s  ClockTime = 1 s

Time = 9900

Courant Number mean: 0.0020052 max: 0.00270849

 Coupling...
Starting up LIGGGHTS
Executing command: 'run 100    '
Setting up run at Wed Mar 15 13:36:56 2023

Memory usage per processor = 6.77243 Mbytes
    Step    Atoms 
  359800      167 
  359900      167 
Loop time of 0.00597331 on 4 procs for 100 steps with 167 atoms, finish time Wed Mar 15 13:36:56 2023


Pair  time (%) = 0.00184928 (30.959)
Neigh time (%) = 0 (0)
Comm  time (%) = 0.000492095 (8.23822)
Outpt time (%) = 3.09312e-05 (0.517824)
Other time (%) = 0.00360101 (60.285)

Nlocal:    41.75 ave 94 max 0 min
Histogram: 2 0 0 0 0 0 0 1 0 1
Nghost:    186.25 ave 384 max 0 min
Histogram: 2 0 0 0 0 0 0 0 0 2
Neighs:    1080.5 ave 2386 max 0 min
Histogram: 2 0 0 0 0 0 0 0 1 1

Total # of neighbors = 4322
Ave neighs/atom = 25.8802
Neighbor list builds = 0
Dangerous builds = 0
Executing command: 'write_restart ../DEM/liggghts.restartCFDEM'
System init for write_restart ...
LIGGGHTS finished

 timeStepFraction() = 1
[0] cellI = 81
[0] index = 0
[0] Us = (-8.22809e-06 2.75442e-05 1.78597e-05)
[3] cellI = 81
[3] index = 1
[3] Us = (-2.58851e-05 2.10369e-05 3.04068e-06)
[3] Ur = (2.69065e-05 0.000189121 -0.00169553)
[3] dprim = 200
[0] Ur = (-0.000135051 1.52055e-05 -0.00198087)
[0] dprim = 200
[0] phi = 1
[0] rho = 1
[0] nuf = 1
[0] voidfraction = 0.401317
[3] phi = 1
[3] rho = 1
[3] nuf = 1
[3] voidfraction = 0.424487
[3] Rep = 0
[3] betaP = 0.00509912
[3] drag = (0.5747 4.03946 -36.2151)
[0] Rep = 0
[0] betaP = 0.00561161
[0] drag = (-3.17449 0.357417 -46.5621)

Solver level total Eulerian momentum exchange:
  TotalForceImp:  (225.76 197.763 7945.59)
  Warning, these values are based on latest Ksl and Us but prev. iteration U!

DILUPBiCG:  Solving for Ux, Initial residual = 0.185881, Final residual = 3.11952e-05, No Iterations 1
DILUPBiCG:  Solving for Uy, Initial residual = 0.130704, Final residual = 1.62025e-05, No Iterations 1
DILUPBiCG:  Solving for Uz, Initial residual = 0.0465747, Final residual = 1.30064e-05, No Iterations 1
DICPCG:  Solving for p, Initial residual = 0.020217, Final residual = 0.0013717, No Iterations 3
DICPCG:  Solving for p, Initial residual = 0.00135119, Final residual = 4.60492e-05, No Iterations 23
time step continuity errors : sum local = 5.25907e-08, global = 9.22966e-11, cumulative = -6.93451e-08
DICPCG:  Solving for p, Initial residual = 0.000688901, Final residual = 5.58575e-05, No Iterations 2
DICPCG:  Solving for p, Initial residual = 5.58778e-05, Final residual = 2.90841e-06, No Iterations 23
time step continuity errors : sum local = 3.13338e-09, global = 7.90259e-11, cumulative = -6.92661e-08
DICPCG:  Solving for p, Initial residual = 1.16733e-05, Final residual = 5.23477e-07, No Iterations 3
DICPCG:  Solving for p, Initial residual = 5.2348e-07, Final residual = 5.2348e-07, No Iterations 0
time step continuity errors : sum local = 5.65034e-10, global = -3.50735e-11, cumulative = -6.93012e-08
DICPCG:  Solving for p, Initial residual = 6.97786e-07, Final residual = 6.97786e-07, No Iterations 0
DICPCG:  Solving for p, Initial residual = 6.97786e-07, Final residual = 6.97786e-07, No Iterations 0
time step continuity errors : sum local = 7.53177e-10, global = -3.85172e-11, cumulative = -6.93397e-08
ExecutionTime = 1.14 s  ClockTime = 1 s

Time = 10000

Courant Number mean: 0.00200518 max: 0.00268573

 Coupling...
Starting up LIGGGHTS
Executing command: 'run 100    '
Setting up run at Wed Mar 15 13:36:56 2023

Memory usage per processor = 6.77243 Mbytes
    Step    Atoms 
  359900      167 
  360000      167 
Loop time of 0.00771863 on 4 procs for 100 steps with 167 atoms, finish time Wed Mar 15 13:36:56 2023


Pair  time (%) = 0.00183398 (23.7605)
Neigh time (%) = 0 (0)
Comm  time (%) = 0.000493214 (6.38991)
Outpt time (%) = 0.00176312 (22.8424)
Other time (%) = 0.00362831 (47.0072)

Nlocal:    41.75 ave 94 max 0 min
Histogram: 2 0 0 0 0 0 0 1 0 1
Nghost:    186.25 ave 384 max 0 min
Histogram: 2 0 0 0 0 0 0 0 0 2
Neighs:    1080.5 ave 2386 max 0 min
Histogram: 2 0 0 0 0 0 0 0 1 1

Total # of neighbors = 4322
Ave neighs/atom = 25.8802
Neighbor list builds = 0
Dangerous builds = 0
Executing command: 'write_restart ../DEM/liggghts.restartCFDEM'
System init for write_restart ...
LIGGGHTS finished

 timeStepFraction() = 1
[3] cellI = 81
[3] index = 1
[0] cellI = 81
[0] index = 0
[0] Us = (1.84554e-05 2.81453e-05 6.4034e-05)
[0] Ur = (-0.000152949 1.74322e-05 -0.00205195)
[0] dprim = 200
[3] Us = (2.05289e-05 -2.22462e-05 3.82558e-05)
[3] Ur = (-4.01541e-05 0.000232836 -0.00181181)
[3] dprim = 200
[3] phi = 1
[3] rho = 1
[3] nuf = 1
[0] phi = 1
[0] rho = 1
[0] nuf = 1
[0] voidfraction = 0.404161
[0] Rep = 0
[3] voidfraction = 0.425273
[3] Rep = 0
[3] betaP = 0.00508385
[3] drag = (-0.855089 4.95828 -38.5828)
[0] betaP = 0.00554649
[0] drag = (-3.55349 0.405004 -47.6731)

Solver level total Eulerian momentum exchange:
  TotalForceImp:  (423.413 422.16 8222.25)
  Warning, these values are based on latest Ksl and Us but prev. iteration U!

DILUPBiCG:  Solving for Ux, Initial residual = 0.153359, Final residual = 2.39771e-05, No Iterations 1
DILUPBiCG:  Solving for Uy, Initial residual = 0.107065, Final residual = 1.64459e-05, No Iterations 1
DILUPBiCG:  Solving for Uz, Initial residual = 0.0314865, Final residual = 8.1887e-06, No Iterations 1
DICPCG:  Solving for p, Initial residual = 0.0198626, Final residual = 0.00128183, No Iterations 2
DICPCG:  Solving for p, Initial residual = 0.00127423, Final residual = 9.9137e-05, No Iterations 9
time step continuity errors : sum local = 1.0757e-07, global = -3.54465e-08, cumulative = -1.04786e-07
DICPCG:  Solving for p, Initial residual = 0.000508124, Final residual = 3.68173e-05, No Iterations 21
DICPCG:  Solving for p, Initial residual = 3.61588e-05, Final residual = 3.10671e-06, No Iterations 3
time step continuity errors : sum local = 3.43843e-09, global = -3.18731e-11, cumulative = -1.04818e-07
DICPCG:  Solving for p, Initial residual = 2.38004e-05, Final residual = 1.11155e-06, No Iterations 22
DICPCG:  Solving for p, Initial residual = 1.11249e-06, Final residual = 3.8393e-07, No Iterations 1
time step continuity errors : sum local = 4.2456e-10, global = 1.60532e-11, cumulative = -1.04802e-07
DICPCG:  Solving for p, Initial residual = 6.68692e-07, Final residual = 6.68692e-07, No Iterations 0
DICPCG:  Solving for p, Initial residual = 6.68692e-07, Final residual = 6.68692e-07, No Iterations 0
time step continuity errors : sum local = 7.39457e-10, global = 3.0857e-11, cumulative = -1.04771e-07
ExecutionTime = 1.15 s  ClockTime = 1 s

End

Finalising parallel run
