
//   CFDEM_run   //

/home/pse/Filtration_Simulator/examples/uniform/CFDEM/CFD

/*---------------------------------------------------------------------------*\
| =========                 |                                                 |
| \\      /  F ield         | OpenFOAM: The Open Source CFD Toolbox           |
|  \\    /   O peration     | Version:  5.x                                   |
|   \\  /    A nd           | Web:      www.OpenFOAM.org                      |
|    \\/     M anipulation  |                                                 |
\*---------------------------------------------------------------------------*/
Build  : 5.x-7f7d351b741b
Exec   : cfdemSolverPiso -parallel
Date   : Mar 15 2023
Time   : 13:43:52
Host   : "CFDEM1"
PID    : 205318
I/O    : uncollated
Case   : /home/pse/Filtration_Simulator/examples/uniform/CFDEM/CFD
nProcs : 4
Slaves : 
3
(
"CFDEM1.205319"
"CFDEM1.205320"
"CFDEM1.205321"
)

Pstream initialized with:
    floatTransfer      : 0
    nProcsSimpleSum    : 0
    commsType          : nonBlocking
    polling iterations : 0
sigFpe : Enabling floating point exception trapping (FOAM_SIGFPE).
fileModificationChecking : Monitoring run-time modified files using timeStampMaster (fileModificationSkew 10)
allowSystemOperations : Allowing user-supplied system call operations

// * * * * * * * * * * * * * * * * * * * * * * * * * * * * * * * * * * * * * //
Create time

Overriding DimensionedConstants according to controlDict
    c [0 1 -1 0 0 0 0] 2.99792e+08
    G [-1 3 -2 0 0 0 0] 6.67429e-20
    h [1 2 -1 0 0 0 0] 6.62607e-13
    e [0 0 1 0 0 1 0] 1.60218e-07
    me [1 0 0 0 0 0 0] 9.10938e-19
    mp [1 0 0 0 0 0 0] 1.67262e-15
    mu [1 0 0 0 0 0 0] 1.66054e-15
    NA [0 0 0 0 -1 0 0] 6.02214e+23
    k [1 2 -2 -1 0 0 0] 1.38065e-08
    Pstd [1 -1 -2 0 0 0 0] 100
    Tstd [0 0 0 1 0 0 0] 298.15
    hr [1 2 -1 0 0 0 0] 1.05457e-13
    mu0 [1 1 -2 0 0 -2 0] 1.25664e-06
    epsilon0 [-1 -3 4 0 0 2 0] 8.85421e-12
    Z0 [1 2 -3 0 0 -2 0] 376.73
    kappa [1 3 -4 0 0 -2 0] 8.98752e+09
    G0 [-1 -2 3 0 0 2 0] 0.0774812
    KJ [-1 -2 2 0 0 1 0] 483599
    phi0 [1 2 -2 0 0 -1 0] 2.06783e-06
    RK [1 2 -3 0 0 -2 0] 25.8127
    alpha [0 0 0 0 0 0 0] 7.29737
    Rinf [0 -1 0 0 0 0 0] 10973.8
    a0 [0 1 0 0 0 0 0] 5.29177e-05
    re [0 1 0 0 0 0 0] 0.00281795
    Eh [1 2 -2 0 0 0 0] 4.35975
    R [1 2 -2 -1 -1 0 0] 8.31447e+15
    F [0 0 1 0 -1 1 0] 9.64856e+16
    sigma [1 0 -3 -4 0 0 0] 5.67041e-11
    b [0 1 0 1 0 0 0] 2897.77
    c1 [1 4 -3 0 0 0 0] 374176
    c2 [0 1 0 1 0 0 0] 14387.7
Create mesh for time = 0


PISO: Operating solver in PISO mode

Reading field p

Reading physical velocity field U
Note: only if voidfraction at boundary is 1, U is superficial velocity!!!


Reading momentum exchange field Ksl


Reading voidfraction field voidfraction = (Vgas/Vparticle)


Creating density field rho

Reading particle velocity field Us

Reading/calculating face flux field phi

Generating interstitial face flux field phiByVoidfraction

Selecting incompressible transport model Newtonian
Selecting turbulence model type laminar
Selecting laminar stress model Stokes
No finite volume options present


Reading g
Selecting locateModel engine
Selecting dataExchangeModel twoWayMPI
Starting up LIGGGHTS for first time execution
Executing input script '../DEM/liggghts_run.txt'
LIGGGHTS (Version LIGGGHTS-PUBLIC 3.8.0, compiled 2022-08-09-18:54:32 by pse, git commit 86544c3f1215bc9744d7929e3eacf53ba086af9e)
Reading restart file ...
WARNING: Restart file version does not match LIGGGHTS version (../read_restart.cpp:507)
   --> restart file = Version LIGGGHTS-PUBLIC 3.8.0, compiled 2022-08-09-18:52:33 by pse, git commit 86544c3f1215bc9744d7929e3eacf53ba086af9e
version 3 8
version 3 8
version 3 8
   --> LIGGGHTS = Version LIGGGHTS-PUBLIC 3.8.0, compiled 2022-08-09-18:54:32 by pse, git commit 86544c3f1215bc9744d7929e3eacf53ba086af9e
version 3 8
  orthogonal box = (-500 -500 -4000) to (500 500 5000)
  1 by 1 by 4 MPI processor grid
  1400 atoms
INFO: mesh file (../DEM/stl_file/box.stl) is required, but data will be taken from restart file (../fix_mesh.cpp:417)
Resetting global state of Fix cad Style mesh/surface from restart file info
INFO: mesh file (../DEM/stl_file/inlet.stl) is required, but data will be taken from restart file (../fix_mesh.cpp:417)
Resetting global state of Fix inface Style mesh/surface from restart file info
Resetting global state of Fix n_neighs_mesh_cad Style property/atom from restart file info
Resetting per-atom state of Fix n_neighs_mesh_cad Style property/atom from restart file info
Resetting global state of Fix tracker_cad Style contacthistory/mesh from restart file info
Resetting per-atom state of Fix tracker_cad Style contacthistory/mesh from restart file info
1400 atoms in group nve_group
couple_every as specified in LIGGGHTS is overriden by calling external program (../fix_cfd_coupling.cpp:114)
Resetting global state of Fix contacthistory Style contacthistory from restart file info
Resetting per-atom state of Fix contacthistory Style contacthistory from restart file info
Setting up run at Wed Mar 15 13:43:52 2023

Import and parallelization of mesh cad containing 2 triangle(s) successful
Import and parallelization of mesh inface containing 2 triangle(s) successful
Memory usage per processor = 7.03305 Mbytes
    Step    Atoms 
  350000     1400 
Loop time of 2.2595e-06 on 4 procs for 0 steps with 1400 atoms, finish time Wed Mar 15 13:43:52 2023


Pair  time (%) = 0 (0)
Neigh time (%) = 0 (0)
Comm  time (%) = 0 (0)
Outpt time (%) = 0 (0)
Other time (%) = 2.2595e-06 (100)

Nlocal:    350 ave 812 max 0 min
Histogram: 2 0 0 0 0 0 0 1 0 1
Nghost:    1004.5 ave 2188 max 0 min
Histogram: 2 0 0 0 0 0 0 0 1 1
Neighs:    27686.5 ave 63971 max 0 min
Histogram: 2 0 0 0 0 0 0 1 0 1

Total # of neighbors = 110746
Ave neighs/atom = 79.1043
Neighbor list builds = 0
Dangerous builds = 0
Selecting IOModel basicIO
Selecting probeModel off
Selecting voidFractionModel divided
Selecting averagingModel dense
Selecting clockModel off
start clock measurement at t >200
Selecting smoothingModel off
Selecting meshMotionModel noMeshMotion

CFDEMcoupling version: cfdem-3.8.1
, compatible to LIGGGHTS version: 3.8.0
, compatible to OF version and build: 5.x-commit-538044ac05c4672b37c7df607dca1116fa88df88

You are currently using:
OF version: 5.x
OF build: 5.x-7f7d351b741b
CFDEM build: 3.8.0-3-gb237264-dirty

cg is set to: 1
LIGGGHTS hosts 1 atom types.
If BC are important, please provide volScalarFields -imp/expParticleForces-
ignoring ddt(voidfraction)
Selecting momCoupleModel implicitCouple

implicit momentum exchange field calculate if alphaP larger than : 1
Selecting forceModel GidaspowDrag
 Selecting forceSubModel ImEx
 reading switches:
  looking for treatForceExplicit ...  not found in dict, using default. treatForceExplicit = false
  looking for implForceDEM ...  not found in dict, using default. implForceDEM = false
  looking for verbose ...  found in dict. verbose = true
  looking for interpolation ...  found in dict. interpolation = true
  looking for scalarViscosity ...  not found in dict, using default. scalarViscosity = false

--> FOAM Warning : Please make sure you use the new nomenclature for verbose force model settings, please have a look at the forceSubModel doc.
Selecting forceModel gradPForce
 Selecting forceSubModel ImEx
 reading switches:
  looking for treatForceExplicit ...  not found in dict, using default. treatForceExplicit = true
  looking for verbose ...  not found in dict, using default. verbose = false
  looking for interpolation ...  found in dict. interpolation = true

Selecting forceModel viscForce
 Selecting forceSubModel ImEx
 reading switches:
  looking for treatForceExplicit ...  not found in dict, using default. treatForceExplicit = true
  looking for verbose ...  not found in dict, using default. verbose = false
  looking for interpolation ...  found in dict. interpolation = true
  looking for scalarViscosity ...  not found in dict, using default. scalarViscosity = false

Selecting forceModel fieldStore
Creating field stored_U
Selecting liggghtsCommandModel runLiggghts ,provide dicts, numbered from 0 to n
Selecting liggghtsCommandModel writeLiggghts ,provide dicts, numbered from 0 to n
writeLiggghts: A restart file writeName_write_restart ../DEM/liggghts.restartCFDEM is written.
solving volume averaged Navier Stokes equations of type A
check if Archimedes lift is necessary (depends on pressure formulation)


Starting time loop

--> FOAM Warning : 
    From function void Foam::timeControl::read(const Foam::dictionary&)
    in file db/functionObjects/timeControl/timeControl.C at line 89
    Reading "/home/pse/Filtration_Simulator/examples/uniform/CFDEM/CFD/system/controlDict.functions.probes" from line 125 to line 137
    Using deprecated 'outputControl'
    Please use 'writeControl' with 'writeInterval'
Time = 100

Courant Number mean: 0.002 max: 0.002

 Coupling...
Starting up LIGGGHTS
Executing command: 'run 100    '
Setting up run at Wed Mar 15 13:43:52 2023

Memory usage per processor = 7.03305 Mbytes
    Step    Atoms 
  350000     1400 
  350100     1400 
Loop time of 0.076439 on 4 procs for 100 steps with 1400 atoms, finish time Wed Mar 15 13:43:52 2023


Pair  time (%) = 0.0299079 (39.1265)
Neigh time (%) = 0 (0)
Comm  time (%) = 0.00195087 (2.5522)
Outpt time (%) = 0.000429044 (0.56129)
Other time (%) = 0.0441511 (57.76)

Nlocal:    350 ave 812 max 0 min
Histogram: 2 0 0 0 0 0 0 1 0 1
Nghost:    1004.5 ave 2188 max 0 min
Histogram: 2 0 0 0 0 0 0 0 1 1
Neighs:    27686.5 ave 63971 max 0 min
Histogram: 2 0 0 0 0 0 0 1 0 1

Total # of neighbors = 110746
Ave neighs/atom = 79.1043
Neighbor list builds = 0
Dangerous builds = 0
LIGGGHTS finished

 timeStepFraction() = 1
[3] cellI = 80
[3] index = 1
[3] Us = (3.58522e-08 3.44037e-08 -1.18698e-09)
[3] Ur = (-3.58522e-08 -3.44037e-08 -0.000999999)
[3] dprim = 100
[3] phi = 1
[3] rho = 1
[3] nuf = 1
[3] voidfraction = 0.424455
[3] Rep = 0
[3] betaP = 0.0203569
[3] drag = (-0.000382144 -0.000366704 -10.6589)
[2] cellI = 80
[2] index = 0
[2] Us = (5.68467e-08 3.62294e-08 -5.54276e-09)
[2] Ur = (-5.68467e-08 -3.62294e-08 -0.000999994)
[2] dprim = 100
[2] phi = 1
[2] rho = 1
[2] nuf = 1
[2] voidfraction = 0.406855
[2] Rep = 0
[2] betaP = 0.0218857
[2] drag = (-0.000651424 -0.000415164 -11.4592)

Solver level total Eulerian momentum exchange:
  TotalForceImp:  (6.96574 4.9867 17087.7)
  Warning, these values are based on latest Ksl and Us but prev. iteration U!

DILUPBiCG:  Solving for Ux, Initial residual = 1, Final residual = 4.65577e-05, No Iterations 1
DILUPBiCG:  Solving for Uy, Initial residual = 1, Final residual = 6.63042e-05, No Iterations 1
DILUPBiCG:  Solving for Uz, Initial residual = 1, Final residual = 3.14046e-05, No Iterations 1
DICPCG:  Solving for p, Initial residual = 1, Final residual = 0.0662503, No Iterations 23
DICPCG:  Solving for p, Initial residual = 0.000280723, Final residual = 1.93463e-05, No Iterations 3
time step continuity errors : sum local = 1.06589e-07, global = -2.51031e-10, cumulative = -2.51031e-10
DICPCG:  Solving for p, Initial residual = 0.000243266, Final residual = 1.94415e-05, No Iterations 22
DICPCG:  Solving for p, Initial residual = 1.97618e-05, Final residual = 1.46629e-06, No Iterations 3
time step continuity errors : sum local = 7.9472e-09, global = 4.84263e-10, cumulative = 2.33232e-10
DICPCG:  Solving for p, Initial residual = 3.79857e-06, Final residual = 7.23388e-07, No Iterations 1
DICPCG:  Solving for p, Initial residual = 7.23389e-07, Final residual = 7.23389e-07, No Iterations 0
time step continuity errors : sum local = 3.92061e-09, global = 3.56188e-10, cumulative = 5.8942e-10
DICPCG:  Solving for p, Initial residual = 8.12331e-07, Final residual = 8.12331e-07, No Iterations 0
DICPCG:  Solving for p, Initial residual = 8.12331e-07, Final residual = 8.12331e-07, No Iterations 0
time step continuity errors : sum local = 4.40266e-09, global = 3.51557e-10, cumulative = 9.40976e-10
ExecutionTime = 0.12 s  ClockTime = 0 s

Time = 200

Courant Number mean: 0.00200152 max: 0.00223817

 Coupling...
Starting up LIGGGHTS
Executing command: 'run 100    '
Setting up run at Wed Mar 15 13:43:52 2023

Memory usage per processor = 7.03305 Mbytes
    Step    Atoms 
  350100     1400 
  350200     1400 
Loop time of 0.0768502 on 4 procs for 100 steps with 1400 atoms, finish time Wed Mar 15 13:43:52 2023


Pair  time (%) = 0.0301849 (39.2775)
Neigh time (%) = 0 (0)
Comm  time (%) = 0.00196332 (2.55474)
Outpt time (%) = 0.000428313 (0.557336)
Other time (%) = 0.0442737 (57.6104)

Nlocal:    350 ave 812 max 0 min
Histogram: 2 0 0 0 0 0 0 1 0 1
Nghost:    1004.5 ave 2188 max 0 min
Histogram: 2 0 0 0 0 0 0 0 1 1
Neighs:    27686.5 ave 63971 max 0 min
Histogram: 2 0 0 0 0 0 0 1 0 1

Total # of neighbors = 110746
Ave neighs/atom = 79.1043
Neighbor list builds = 0
Dangerous builds = 0
LIGGGHTS finished

 timeStepFraction() = 1
[2] cellI = 80
[2] index = 0
[2] Us = (-7.93919e-06 -3.50848e-06 -0.000156004)
[2] Ur = (1.27974e-05 -5.78815e-06 -0.00165398)
[2] dprim = 100
[2] phi = 1
[2] rho = 1
[2] nuf = 1
[2] voidfraction = 0.406577
[2] Rep = 0
[2] betaP = 0.0219223
[2] drag = (0.146895 -0.0664392 -18.9852)
[3] cellI = 80
[3] index = 1
[3] Us = (-4.07866e-05 2.1739e-05 -0.000117996)
[3] Ur = (5.4659e-05 -9.90271e-06 -0.00184608)
[3] dprim = 100
[3] phi = 1
[3] rho = 1
[3] nuf = 1
[3] voidfraction = 0.424343
[3] Rep = 0
[3] betaP = 0.0203811
[3] drag = (0.583293 -0.105677 -19.7005)

Solver level total Eulerian momentum exchange:
  TotalForceImp:  (8.17357 -304.687 30072.6)
  Warning, these values are based on latest Ksl and Us but prev. iteration U!

DILUPBiCG:  Solving for Ux, Initial residual = 0.141041, Final residual = 4.74556e-05, No Iterations 1
DILUPBiCG:  Solving for Uy, Initial residual = 0.166067, Final residual = 6.65744e-05, No Iterations 1
DILUPBiCG:  Solving for Uz, Initial residual = 0.193785, Final residual = 1.41422e-05, No Iterations 1
DICPCG:  Solving for p, Initial residual = 0.00404519, Final residual = 0.000217811, No Iterations 23
DICPCG:  Solving for p, Initial residual = 0.000367179, Final residual = 2.19177e-05, No Iterations 3
time step continuity errors : sum local = 7.05334e-08, global = 2.35867e-09, cumulative = 3.29964e-09
DICPCG:  Solving for p, Initial residual = 0.000211447, Final residual = 1.74429e-05, No Iterations 22
DICPCG:  Solving for p, Initial residual = 1.72428e-05, Final residual = 8.25864e-07, No Iterations 3
time step continuity errors : sum local = 2.68723e-09, global = -1.54043e-10, cumulative = 3.1456e-09
DICPCG:  Solving for p, Initial residual = 3.4815e-06, Final residual = 6.54243e-07, No Iterations 1
DICPCG:  Solving for p, Initial residual = 6.54244e-07, Final residual = 6.54244e-07, No Iterations 0
time step continuity errors : sum local = 2.1288e-09, global = -2.59962e-10, cumulative = 2.88564e-09
DICPCG:  Solving for p, Initial residual = 6.94045e-07, Final residual = 6.94045e-07, No Iterations 0
DICPCG:  Solving for p, Initial residual = 6.94045e-07, Final residual = 6.94045e-07, No Iterations 0
time step continuity errors : sum local = 2.25831e-09, global = -2.66317e-10, cumulative = 2.61932e-09
ExecutionTime = 0.21 s  ClockTime = 0 s

Time = 300

Courant Number mean: 0.00200145 max: 0.00223695

 Coupling...
Starting up LIGGGHTS
Executing command: 'run 100    '
Setting up run at Wed Mar 15 13:43:52 2023

Memory usage per processor = 7.03305 Mbytes
    Step    Atoms 
  350200     1400 
  350300     1400 
Loop time of 0.0745921 on 4 procs for 100 steps with 1400 atoms, finish time Wed Mar 15 13:43:52 2023


Pair  time (%) = 0.0298413 (40.0061)
Neigh time (%) = 0 (0)
Comm  time (%) = 0.00178589 (2.39421)
Outpt time (%) = 0.000402106 (0.539073)
Other time (%) = 0.0425627 (57.0607)

Nlocal:    350 ave 812 max 0 min
Histogram: 2 0 0 0 0 0 0 1 0 1
Nghost:    1004.5 ave 2188 max 0 min
Histogram: 2 0 0 0 0 0 0 0 1 1
Neighs:    27687.5 ave 63972 max 0 min
Histogram: 2 0 0 0 0 0 0 1 0 1

Total # of neighbors = 110750
Ave neighs/atom = 79.1071
Neighbor list builds = 0
Dangerous builds = 0
LIGGGHTS finished

 timeStepFraction() = 1
[3] cellI = 80
[3] index = 1
[3] Us = (0.000115652 0.000256022 -0.000643264)
[3] Ur = (-9.52246e-05 -0.000255066 -0.00128523)
[3] dprim = 100
[3] phi = 1
[3] rho = 1
[3] nuf = 1
[3] voidfraction = 0.423951
[3] Rep = 0
[3] betaP = 0.0204044
[3] drag = (-1.01735 -2.72505 -13.731)
[2] cellI = 80
[2] index = 0
[2] Us = (-0.000137118 -5.57875e-05 -0.000892338)
[2] Ur = (0.000149021 3.85215e-05 -0.000844375)
[2] dprim = 100
[2] phi = 1
[2] rho = 1
[2] nuf = 1
[2] voidfraction = 0.405593
[2] Rep = 0
[2] betaP = 0.0219979
[2] drag = (1.71644 0.443694 -9.72558)

Solver level total Eulerian momentum exchange:
  TotalForceImp:  (321.72 54.937 -42978.1)
  Warning, these values are based on latest Ksl and Us but prev. iteration U!

DILUPBiCG:  Solving for Ux, Initial residual = 0.441114, Final residual = 5.40164e-05, No Iterations 1
DILUPBiCG:  Solving for Uy, Initial residual = 0.424319, Final residual = 4.75038e-05, No Iterations 1
DILUPBiCG:  Solving for Uz, Initial residual = 0.43117, Final residual = 1.38218e-05, No Iterations 1
DICPCG:  Solving for p, Initial residual = 0.0161757, Final residual = 0.000730196, No Iterations 23
DICPCG:  Solving for p, Initial residual = 0.00050431, Final residual = 2.48462e-05, No Iterations 3
time step continuity errors : sum local = 1.18196e-07, global = 2.27649e-09, cumulative = 4.89581e-09
DICPCG:  Solving for p, Initial residual = 0.000366667, Final residual = 1.47431e-05, No Iterations 23
DICPCG:  Solving for p, Initial residual = 1.51752e-05, Final residual = 6.52061e-07, No Iterations 3
time step continuity errors : sum local = 3.01224e-09, global = -1.21975e-10, cumulative = 4.77383e-09
DICPCG:  Solving for p, Initial residual = 4.63785e-06, Final residual = 8.84971e-07, No Iterations 1
DICPCG:  Solving for p, Initial residual = 8.84972e-07, Final residual = 8.84972e-07, No Iterations 0
time step continuity errors : sum local = 4.08815e-09, global = -2.46607e-10, cumulative = 4.52723e-09
DICPCG:  Solving for p, Initial residual = 8.81547e-07, Final residual = 8.81547e-07, No Iterations 0
DICPCG:  Solving for p, Initial residual = 8.81547e-07, Final residual = 8.81547e-07, No Iterations 0
time step continuity errors : sum local = 4.07233e-09, global = -2.54259e-10, cumulative = 4.27297e-09
ExecutionTime = 0.29 s  ClockTime = 0 s

Time = 400

Courant Number mean: 0.0020008 max: 0.00212713

 Coupling...
Starting up LIGGGHTS
Executing command: 'run 100    '
Setting up run at Wed Mar 15 13:43:52 2023

Memory usage per processor = 7.03305 Mbytes
    Step    Atoms 
  350300     1400 
  350400     1400 
Loop time of 0.0738807 on 4 procs for 100 steps with 1400 atoms, finish time Wed Mar 15 13:43:52 2023


Pair  time (%) = 0.0297458 (40.2619)
Neigh time (%) = 0 (0)
Comm  time (%) = 0.00178375 (2.41436)
Outpt time (%) = 0.000410437 (0.55554)
Other time (%) = 0.0419408 (56.7682)

Nlocal:    350 ave 811 max 0 min
Histogram: 2 0 0 0 0 0 0 1 0 1
Nghost:    1004.5 ave 2189 max 0 min
Histogram: 2 0 0 0 0 0 0 0 1 1
Neighs:    27692.2 ave 63901 max 0 min
Histogram: 2 0 0 0 0 0 0 1 0 1

Total # of neighbors = 110769
Ave neighs/atom = 79.1207
Neighbor list builds = 0
Dangerous builds = 0
LIGGGHTS finished

 timeStepFraction() = 1
[3] cellI = 80
[3] index = 1
[3] Us = (8.35202e-05 -8.04755e-05 0.000139547)
[3] Ur = (-0.000110915 -4.42641e-05 -0.00151067)
[3] dprim = 100
[3] phi = 1
[3] rho = 1
[3] nuf = 1
[3] voidfraction = 0.423896
[3] Rep = 0
[3] betaP = 0.0204126
[3] drag = (-1.18545 -0.473094 -16.146)
[2] cellI = 80
[2] index = 0
[2] Us = (5.01642e-05 -7.87117e-08 0.000163109)
[2] Ur = (-5.43715e-05 -1.8422e-05 -0.00143644)
[2] dprim = 100
[2] phi = 1
[2] rho = 1
[2] nuf = 1
[2] voidfraction = 0.405403
[2] Rep = 0
[2] betaP = 0.0220254
[2] drag = (-0.627038 -0.212451 -16.5657)

Solver level total Eulerian momentum exchange:
  TotalForceImp:  (334.841 641.242 21575.4)
  Warning, these values are based on latest Ksl and Us but prev. iteration U!

DILUPBiCG:  Solving for Ux, Initial residual = 0.422026, Final residual = 7.36905e-05, No Iterations 1
DILUPBiCG:  Solving for Uy, Initial residual = 0.570938, Final residual = 0.000113849, No Iterations 1
DILUPBiCG:  Solving for Uz, Initial residual = 0.625965, Final residual = 2.03006e-05, No Iterations 1
DICPCG:  Solving for p, Initial residual = 0.014074, Final residual = 0.00123642, No Iterations 23
DICPCG:  Solving for p, Initial residual = 0.00209184, Final residual = 0.000106829, No Iterations 3
time step continuity errors : sum local = 2.9291e-07, global = -1.03608e-08, cumulative = -6.08782e-09
DICPCG:  Solving for p, Initial residual = 0.000579673, Final residual = 4.737e-05, No Iterations 23
DICPCG:  Solving for p, Initial residual = 4.94874e-05, Final residual = 2.42391e-06, No Iterations 3
time step continuity errors : sum local = 6.35327e-09, global = 3.36368e-10, cumulative = -5.75145e-09
DICPCG:  Solving for p, Initial residual = 1.26909e-05, Final residual = 1.22682e-06, No Iterations 3
DICPCG:  Solving for p, Initial residual = 1.22683e-06, Final residual = 5.92181e-07, No Iterations 1
time step continuity errors : sum local = 1.55209e-09, global = 3.54821e-10, cumulative = -5.39663e-09
DICPCG:  Solving for p, Initial residual = 8.26234e-07, Final residual = 8.26234e-07, No Iterations 0
DICPCG:  Solving for p, Initial residual = 8.26234e-07, Final residual = 8.26234e-07, No Iterations 0
time step continuity errors : sum local = 2.16554e-09, global = 3.57979e-10, cumulative = -5.03865e-09
ExecutionTime = 0.38 s  ClockTime = 0 s

Time = 500

Courant Number mean: 0.00200151 max: 0.00226798

 Coupling...
Starting up LIGGGHTS
Executing command: 'run 100    '
Setting up run at Wed Mar 15 13:43:52 2023

Memory usage per processor = 7.03305 Mbytes
    Step    Atoms 
  350400     1400 
  350500     1400 
Loop time of 0.0754746 on 4 procs for 100 steps with 1400 atoms, finish time Wed Mar 15 13:43:52 2023


Pair  time (%) = 0.0300795 (39.8538)
Neigh time (%) = 0 (0)
Comm  time (%) = 0.00179966 (2.38446)
Outpt time (%) = 0.000424548 (0.562504)
Other time (%) = 0.0431709 (57.1992)

Nlocal:    350 ave 811 max 0 min
Histogram: 2 0 0 0 0 0 0 1 0 1
Nghost:    1004.5 ave 2189 max 0 min
Histogram: 2 0 0 0 0 0 0 0 1 1
Neighs:    27704.8 ave 63920 max 0 min
Histogram: 2 0 0 0 0 0 0 1 0 1

Total # of neighbors = 110819
Ave neighs/atom = 79.1564
Neighbor list builds = 0
Dangerous builds = 0
LIGGGHTS finished

 timeStepFraction() = 1
[3] cellI = 80
[3] index = 1
[3] Us = (6.40659e-05 -7.22427e-05 0.000377184)
[3] Ur = (-1.52725e-05 0.000113726 -0.00237006)
[3] dprim = 100
[3] phi = 1
[3] rho = 1
[3] nuf = 1
[3] voidfraction = 0.424192
[3] Rep = 0
[3] betaP = 0.0204029
[3] drag = (-0.163155 1.21492 -25.3192)
[2] cellI = 80
[2] index = 0
[2] Us = (5.96598e-05 -6.72761e-06 0.000643546)
[2] Ur = (-1.42392e-05 5.57144e-05 -0.00231956)
[2] dprim = 100
[2] phi = 1
[2] rho = 1
[2] nuf = 1
[2] voidfraction = 0.406157
[2] Rep = 0
[2] betaP = 0.0219721
[2] drag = (-0.163816 0.640971 -26.6855)

Solver level total Eulerian momentum exchange:
  TotalForceImp:  (-434.023 -1271.96 112574)
  Warning, these values are based on latest Ksl and Us but prev. iteration U!

DILUPBiCG:  Solving for Ux, Initial residual = 0.529386, Final residual = 8.86384e-05, No Iterations 1
DILUPBiCG:  Solving for Uy, Initial residual = 0.559503, Final residual = 8.12389e-05, No Iterations 1
DILUPBiCG:  Solving for Uz, Initial residual = 0.692789, Final residual = 2.44579e-05, No Iterations 1
DICPCG:  Solving for p, Initial residual = 0.0305763, Final residual = 0.00272521, No Iterations 23
DICPCG:  Solving for p, Initial residual = 0.000588819, Final residual = 4.78024e-05, No Iterations 3
time step continuity errors : sum local = 5.84214e-07, global = -2.56019e-08, cumulative = -3.06405e-08
DICPCG:  Solving for p, Initial residual = 0.000217266, Final residual = 1.18168e-05, No Iterations 23
DICPCG:  Solving for p, Initial residual = 1.19784e-05, Final residual = 1.09722e-06, No Iterations 3
time step continuity errors : sum local = 1.3221e-08, global = 5.61671e-10, cumulative = -3.00789e-08
DICPCG:  Solving for p, Initial residual = 4.3018e-06, Final residual = 6.53976e-07, No Iterations 3
DICPCG:  Solving for p, Initial residual = 6.53978e-07, Final residual = 6.53978e-07, No Iterations 0
time step continuity errors : sum local = 7.88006e-09, global = 1.97241e-10, cumulative = -2.98816e-08
DICPCG:  Solving for p, Initial residual = 7.02318e-07, Final residual = 7.02318e-07, No Iterations 0
DICPCG:  Solving for p, Initial residual = 7.02318e-07, Final residual = 7.02318e-07, No Iterations 0
time step continuity errors : sum local = 8.46253e-09, global = 1.84569e-10, cumulative = -2.9697e-08
ExecutionTime = 0.46 s  ClockTime = 0 s

Time = 600

Courant Number mean: 0.00200329 max: 0.00247422

 Coupling...
Starting up LIGGGHTS
Executing command: 'run 100    '
Setting up run at Wed Mar 15 13:43:52 2023

Memory usage per processor = 7.03305 Mbytes
    Step    Atoms 
  350500     1400 
  350600     1400 
Loop time of 0.0757568 on 4 procs for 100 steps with 1400 atoms, finish time Wed Mar 15 13:43:52 2023


Pair  time (%) = 0.0300395 (39.6525)
Neigh time (%) = 0 (0)
Comm  time (%) = 0.00179448 (2.36874)
Outpt time (%) = 0.000397681 (0.524945)
Other time (%) = 0.0435251 (57.4538)

Nlocal:    350 ave 811 max 0 min
Histogram: 2 0 0 0 0 0 0 1 0 1
Nghost:    1004.5 ave 2189 max 0 min
Histogram: 2 0 0 0 0 0 0 0 1 1
Neighs:    27703.5 ave 63941 max 0 min
Histogram: 2 0 0 0 0 0 0 1 0 1

Total # of neighbors = 110814
Ave neighs/atom = 79.1529
Neighbor list builds = 0
Dangerous builds = 0
LIGGGHTS finished

 timeStepFraction() = 1
[2] cellI = 80
[2] index = 0
[2] Us = (-0.000108838 2.64886e-05 -0.000812508)
[2] Ur = (0.000120606 -3.12258e-05 -0.000978528)
[2] dprim = 100
[2] phi = 1
[2] rho = 1
[2] nuf = 1
[2] voidfraction = 0.405533
[2] Rep = 0
[2] betaP = 0.0220056
[2] drag = (1.38964 -0.359786 -11.2747)
[3] cellI = 80
[3] index = 1
[3] Us = (-0.000231203 6.81511e-05 -0.000614573)
[3] Ur = (0.000288173 -2.55284e-05 -0.00157891)
[3] dprim = 100
[3] phi = 1
[3] rho = 1
[3] nuf = 1
[3] voidfraction = 0.423918
[3] Rep = 0
[3] betaP = 0.0204123
[3] drag = (3.07996 -0.272844 -16.8751)

Solver level total Eulerian momentum exchange:
  TotalForceImp:  (-72.3358 -413.956 5042.02)
  Warning, these values are based on latest Ksl and Us but prev. iteration U!

DILUPBiCG:  Solving for Ux, Initial residual = 0.464588, Final residual = 5.9233e-05, No Iterations 1
DILUPBiCG:  Solving for Uy, Initial residual = 0.436698, Final residual = 9.64026e-05, No Iterations 1
DILUPBiCG:  Solving for Uz, Initial residual = 0.532124, Final residual = 2.9185e-05, No Iterations 1
DICPCG:  Solving for p, Initial residual = 0.011176, Final residual = 0.000784159, No Iterations 23
DICPCG:  Solving for p, Initial residual = 0.0106681, Final residual = 0.000740075, No Iterations 3
time step continuity errors : sum local = 6.60375e-07, global = 3.32762e-08, cumulative = 3.5791e-09
DICPCG:  Solving for p, Initial residual = 0.00438063, Final residual = 0.000182428, No Iterations 23
DICPCG:  Solving for p, Initial residual = 0.000240602, Final residual = 1.66088e-05, No Iterations 3
time step continuity errors : sum local = 1.11823e-08, global = -5.76905e-10, cumulative = 3.0022e-09
DICPCG:  Solving for p, Initial residual = 0.000100858, Final residual = 7.10331e-06, No Iterations 4
DICPCG:  Solving for p, Initial residual = 7.10393e-06, Final residual = 6.85524e-07, No Iterations 20
time step continuity errors : sum local = 4.61396e-10, global = -3.79531e-11, cumulative = 2.96424e-09
DICPCG:  Solving for p, Initial residual = 2.5655e-06, Final residual = 6.55838e-07, No Iterations 1
DICPCG:  Solving for p, Initial residual = 6.55837e-07, Final residual = 6.55837e-07, No Iterations 0
time step continuity errors : sum local = 4.4099e-10, global = 9.85166e-12, cumulative = 2.9741e-09
ExecutionTime = 0.55 s  ClockTime = 0 s

Time = 700

Courant Number mean: 0.00200272 max: 0.00238647

 Coupling...
Starting up LIGGGHTS
Executing command: 'run 100    '
Setting up run at Wed Mar 15 13:43:52 2023

Memory usage per processor = 7.03305 Mbytes
    Step    Atoms 
  350600     1400 
  350700     1400 
Loop time of 0.0702384 on 4 procs for 100 steps with 1400 atoms, finish time Wed Mar 15 13:43:52 2023


Pair  time (%) = 0.0288245 (41.0381)
Neigh time (%) = 0 (0)
Comm  time (%) = 0.00180348 (2.56766)
Outpt time (%) = 0.00038037 (0.541541)
Other time (%) = 0.03923 (55.8527)

Nlocal:    350 ave 811 max 0 min
Histogram: 2 0 0 0 0 0 0 1 0 1
Nghost:    1004.5 ave 2189 max 0 min
Histogram: 2 0 0 0 0 0 0 0 1 1
Neighs:    27696.8 ave 63910 max 0 min
Histogram: 2 0 0 0 0 0 0 1 0 1

Total # of neighbors = 110787
Ave neighs/atom = 79.1336
Neighbor list builds = 0
Dangerous builds = 0
LIGGGHTS finished

 timeStepFraction() = 1
[3] cellI = 80
[3] index = 1
[3] Us = (0.000115185 0.000109619 -0.000378977)
[3] Ur = (-0.000133744 -0.000191293 -0.00138502)
[3] dprim = 100
[3] phi = 1
[3] rho = 1
[3] nuf = 1
[3] voidfraction = 0.42296
[3] Rep = 0
[3] betaP = 0.020489
[3] drag = (-1.43481 -2.05219 -14.8585)
[2] cellI = 80
[2] index = 0
[2] Us = (0.000111821 5.65953e-05 -0.000723595)
[2] Ur = (-0.000114937 -9.14053e-05 -0.000992271)
[2] dprim = 100
[2] phi = 1
[2] rho = 1
[2] nuf = 1
[2] voidfraction = 0.404219
[2] Rep = 0
[2] betaP = 0.0221261
[2] drag = (-1.33157 -1.05895 -11.4957)

Solver level total Eulerian momentum exchange:
  TotalForceImp:  (1311.73 849.482 -88423.5)
  Warning, these values are based on latest Ksl and Us but prev. iteration U!

DILUPBiCG:  Solving for Ux, Initial residual = 0.515171, Final residual = 5.65892e-05, No Iterations 1
DILUPBiCG:  Solving for Uy, Initial residual = 0.398223, Final residual = 6.50366e-05, No Iterations 1
DILUPBiCG:  Solving for Uz, Initial residual = 0.555962, Final residual = 2.32919e-05, No Iterations 1
DICPCG:  Solving for p, Initial residual = 0.220974, Final residual = 0.0154114, No Iterations 22
DICPCG:  Solving for p, Initial residual = 0.00121377, Final residual = 0.000107717, No Iterations 4
time step continuity errors : sum local = 9.66934e-07, global = -3.91247e-08, cumulative = -3.61506e-08
DICPCG:  Solving for p, Initial residual = 0.000373825, Final residual = 2.57159e-05, No Iterations 23
DICPCG:  Solving for p, Initial residual = 2.6118e-05, Final residual = 2.53739e-06, No Iterations 3
time step continuity errors : sum local = 2.24158e-08, global = -1.00869e-09, cumulative = -3.71593e-08
DICPCG:  Solving for p, Initial residual = 6.91579e-06, Final residual = 6.96693e-07, No Iterations 3
DICPCG:  Solving for p, Initial residual = 6.96695e-07, Final residual = 6.96695e-07, No Iterations 0
time step continuity errors : sum local = 6.15467e-09, global = -2.03841e-09, cumulative = -3.91977e-08
DICPCG:  Solving for p, Initial residual = 7.80594e-07, Final residual = 7.80594e-07, No Iterations 0
DICPCG:  Solving for p, Initial residual = 7.80594e-07, Final residual = 7.80594e-07, No Iterations 0
time step continuity errors : sum local = 6.89584e-09, global = -2.04367e-09, cumulative = -4.12414e-08
ExecutionTime = 0.63 s  ClockTime = 0 s

Time = 800

Courant Number mean: 0.00200262 max: 0.00251598

 Coupling...
Starting up LIGGGHTS
Executing command: 'run 100    '
Setting up run at Wed Mar 15 13:43:52 2023

Memory usage per processor = 7.03305 Mbytes
    Step    Atoms 
  350700     1400 
  350800     1400 
Loop time of 0.0730431 on 4 procs for 100 steps with 1400 atoms, finish time Wed Mar 15 13:43:53 2023


Pair  time (%) = 0.029519 (40.4131)
Neigh time (%) = 0 (0)
Comm  time (%) = 0.00180597 (2.47247)
Outpt time (%) = 0.00041115 (0.562887)
Other time (%) = 0.041307 (56.5515)

Nlocal:    350 ave 811 max 0 min
Histogram: 2 0 0 0 0 0 0 1 0 1
Nghost:    1004.5 ave 2189 max 0 min
Histogram: 2 0 0 0 0 0 0 0 1 1
Neighs:    27707.2 ave 63899 max 0 min
Histogram: 2 0 0 0 0 0 0 1 0 1

Total # of neighbors = 110829
Ave neighs/atom = 79.1636
Neighbor list builds = 0
Dangerous builds = 0
LIGGGHTS finished

 timeStepFraction() = 1
[2] cellI = 80
[2] index = 0
[2] Us = (0.000101046 8.3361e-05 0.000997121)
[2] Ur = (-3.58252e-05 -7.77557e-05 -0.00255702)
[2] dprim = 100
[2] phi = 1
[2] rho = 1
[2] nuf = 1
[2] voidfraction = 0.404447
[2] Rep = 0
[2] betaP = 0.0221325
[2] drag = (-0.415162 -0.901074 -29.6321)
[3] cellI = 80
[3] index = 1
[3] Us = (0.000232057 -0.000151802 0.000732215)
[3] Ur = (-0.000179492 0.000151133 -0.00252396)
[3] dprim = 100
[3] phi = 1
[3] rho = 1
[3] nuf = 1
[3] voidfraction = 0.423161
[3] Rep = 0
[3] betaP = 0.0204919
[3] drag = (-1.92586 1.62158 -27.0809)

Solver level total Eulerian momentum exchange:
  TotalForceImp:  (-202.644 177.529 108809)
  Warning, these values are based on latest Ksl and Us but prev. iteration U!

DILUPBiCG:  Solving for Ux, Initial residual = 0.585665, Final residual = 5.42354e-05, No Iterations 1
DILUPBiCG:  Solving for Uy, Initial residual = 0.490886, Final residual = 9.28795e-05, No Iterations 1
DILUPBiCG:  Solving for Uz, Initial residual = 0.849817, Final residual = 2.1866e-05, No Iterations 1
DICPCG:  Solving for p, Initial residual = 0.0187015, Final residual = 0.00111532, No Iterations 23
DICPCG:  Solving for p, Initial residual = 0.000769502, Final residual = 3.789e-05, No Iterations 3
time step continuity errors : sum local = 4.84173e-07, global = -1.6616e-08, cumulative = -5.78574e-08
DICPCG:  Solving for p, Initial residual = 0.000277426, Final residual = 2.07415e-05, No Iterations 23
DICPCG:  Solving for p, Initial residual = 2.13341e-05, Final residual = 1.01453e-06, No Iterations 3
time step continuity errors : sum local = 1.25954e-08, global = 6.00089e-10, cumulative = -5.72573e-08
DICPCG:  Solving for p, Initial residual = 4.93937e-06, Final residual = 4.14334e-07, No Iterations 3
DICPCG:  Solving for p, Initial residual = 4.14335e-07, Final residual = 4.14335e-07, No Iterations 0
time step continuity errors : sum local = 5.14392e-09, global = 4.23407e-10, cumulative = -5.68339e-08
DICPCG:  Solving for p, Initial residual = 5.00665e-07, Final residual = 5.00665e-07, No Iterations 0
DICPCG:  Solving for p, Initial residual = 5.00665e-07, Final residual = 5.00665e-07, No Iterations 0
time step continuity errors : sum local = 6.21571e-09, global = 4.2059e-10, cumulative = -5.64133e-08
ExecutionTime = 0.71 s  ClockTime = 1 s

Time = 900

Courant Number mean: 0.00200345 max: 0.00239008

 Coupling...
Starting up LIGGGHTS
Executing command: 'run 100    '
Setting up run at Wed Mar 15 13:43:53 2023

Memory usage per processor = 7.03305 Mbytes
    Step    Atoms 
  350800     1400 
  350900     1400 
Loop time of 0.0755164 on 4 procs for 100 steps with 1400 atoms, finish time Wed Mar 15 13:43:53 2023


Pair  time (%) = 0.0301346 (39.9047)
Neigh time (%) = 0 (0)
Comm  time (%) = 0.00181266 (2.40035)
Outpt time (%) = 0.000411875 (0.545412)
Other time (%) = 0.0431572 (57.1495)

Nlocal:    350 ave 811 max 0 min
Histogram: 2 0 0 0 0 0 0 1 0 1
Nghost:    1004.5 ave 2189 max 0 min
Histogram: 2 0 0 0 0 0 0 0 1 1
Neighs:    27726.8 ave 63969 max 0 min
Histogram: 2 0 0 0 0 0 0 1 0 1

Total # of neighbors = 110907
Ave neighs/atom = 79.2193
Neighbor list builds = 0
Dangerous builds = 0
LIGGGHTS finished

 timeStepFraction() = 1
[3] cellI = 80
[3] index = 1
[3] Us = (-0.000148943 -0.000172423 0.00018599)
[3] Ur = (0.000343946 0.000278146 -0.00232371)
[3] dprim = 100
[3] phi = 1
[3] rho = 1
[3] nuf = 1
[3] voidfraction = 0.423985
[3] Rep = 0
[3] betaP = 0.02042
[3] drag = (3.67744 2.97391 -24.8449)
[2] cellI = 80
[2] index = 0
[2] Us = (1.53108e-05 -8.01363e-05 0.000404193)
[2] Ur = (2.04537e-05 0.000155579 -0.00214007)
[2] dprim = 100
[2] phi = 1
[2] rho = 1
[2] nuf = 1
[2] voidfraction = 0.405626
[2] Rep = 0
[2] betaP = 0.0220175
[2] drag = (0.235797 1.79357 -24.6714)

Solver level total Eulerian momentum exchange:
  TotalForceImp:  (-1714.83 -3427.06 175888)
  Warning, these values are based on latest Ksl and Us but prev. iteration U!

DILUPBiCG:  Solving for Ux, Initial residual = 0.536329, Final residual = 6.45026e-05, No Iterations 1
DILUPBiCG:  Solving for Uy, Initial residual = 0.625902, Final residual = 0.000104683, No Iterations 1
DILUPBiCG:  Solving for Uz, Initial residual = 0.544935, Final residual = 3.77991e-05, No Iterations 1
DICPCG:  Solving for p, Initial residual = 0.0139404, Final residual = 0.000805714, No Iterations 23
DICPCG:  Solving for p, Initial residual = 0.000551459, Final residual = 4.00988e-05, No Iterations 4
time step continuity errors : sum local = 7.31571e-07, global = -3.28456e-08, cumulative = -8.92588e-08
DICPCG:  Solving for p, Initial residual = 0.000275258, Final residual = 1.02813e-05, No Iterations 22
DICPCG:  Solving for p, Initial residual = 1.03402e-05, Final residual = 7.52249e-07, No Iterations 4
time step continuity errors : sum local = 1.36381e-08, global = -2.40425e-10, cumulative = -8.94993e-08
DICPCG:  Solving for p, Initial residual = 3.4224e-06, Final residual = 8.98521e-07, No Iterations 1
DICPCG:  Solving for p, Initial residual = 8.98522e-07, Final residual = 8.98522e-07, No Iterations 0
time step continuity errors : sum local = 1.62898e-08, global = 1.87771e-09, cumulative = -8.76215e-08
DICPCG:  Solving for p, Initial residual = 9.6052e-07, Final residual = 9.6052e-07, No Iterations 0
DICPCG:  Solving for p, Initial residual = 9.6052e-07, Final residual = 9.6052e-07, No Iterations 0
time step continuity errors : sum local = 1.74138e-08, global = 1.98674e-09, cumulative = -8.56348e-08
ExecutionTime = 0.79 s  ClockTime = 1 s

Time = 1000

Courant Number mean: 0.00200585 max: 0.00306324

 Coupling...
Starting up LIGGGHTS
Executing command: 'run 100    '
Setting up run at Wed Mar 15 13:43:53 2023

Memory usage per processor = 7.03305 Mbytes
    Step    Atoms 
  350900     1400 
  351000     1400 
Loop time of 0.0703321 on 4 procs for 100 steps with 1400 atoms, finish time Wed Mar 15 13:43:53 2023


Pair  time (%) = 0.0287184 (40.8326)
Neigh time (%) = 0 (0)
Comm  time (%) = 0.00179422 (2.55107)
Outpt time (%) = 0.000364756 (0.51862)
Other time (%) = 0.0394547 (56.0977)

Nlocal:    350 ave 811 max 0 min
Histogram: 2 0 0 0 0 0 0 1 0 1
Nghost:    1004.5 ave 2189 max 0 min
Histogram: 2 0 0 0 0 0 0 0 1 1
Neighs:    27703.5 ave 63937 max 0 min
Histogram: 2 0 0 0 0 0 0 1 0 1

Total # of neighbors = 110814
Ave neighs/atom = 79.1529
Neighbor list builds = 0
Dangerous builds = 0
Executing command: 'write_restart ../DEM/liggghts.restartCFDEM'
System init for write_restart ...
LIGGGHTS finished

 timeStepFraction() = 1
[2] cellI = 80
[2] index = 0
[2] Us = (-0.000101647 0.000117683 -0.00156933)
[2] Ur = (5.60334e-05 -0.000228371 -0.000275536)
[2] dprim = 100
[2] phi = 1
[2] rho = 1
[2] nuf = 1
[2] voidfraction = 0.404399
[2] Rep = 0
[2] betaP = 0.0220984
[2] drag = (0.648347 -2.64241 -3.18815)
[3] cellI = 80
[3] index = 1
[3] Us = (-0.00036854 0.000307597 -0.000968725)
[3] Ur = (0.000303 -0.000324876 -0.00118127)
[3] dprim = 100
[3] phi = 1
[3] rho = 1
[3] nuf = 1
[3] voidfraction = 0.423002
[3] Rep = 0
[3] betaP = 0.0204829
[3] drag = (3.24963 -3.48424 -12.6689)

Solver level total Eulerian momentum exchange:
  TotalForceImp:  (2244.51 888.207 -121058)
  Warning, these values are based on latest Ksl and Us but prev. iteration U!

DILUPBiCG:  Solving for Ux, Initial residual = 0.462982, Final residual = 5.78237e-05, No Iterations 1
DILUPBiCG:  Solving for Uy, Initial residual = 0.454087, Final residual = 0.00010167, No Iterations 1
DILUPBiCG:  Solving for Uz, Initial residual = 0.744927, Final residual = 2.66248e-05, No Iterations 1
DICPCG:  Solving for p, Initial residual = 0.0128548, Final residual = 0.001006, No Iterations 23
DICPCG:  Solving for p, Initial residual = 0.00129906, Final residual = 7.98423e-05, No Iterations 3
time step continuity errors : sum local = 1.12585e-06, global = 3.19439e-08, cumulative = -5.36909e-08
DICPCG:  Solving for p, Initial residual = 0.000493751, Final residual = 1.97289e-05, No Iterations 23
DICPCG:  Solving for p, Initial residual = 2.05275e-05, Final residual = 1.17979e-06, No Iterations 3
time step continuity errors : sum local = 1.59685e-08, global = -5.26284e-10, cumulative = -5.42172e-08
DICPCG:  Solving for p, Initial residual = 9.11171e-06, Final residual = 8.43628e-07, No Iterations 3
DICPCG:  Solving for p, Initial residual = 8.4363e-07, Final residual = 8.4363e-07, No Iterations 0
time step continuity errors : sum local = 1.14185e-08, global = -8.67127e-10, cumulative = -5.50843e-08
DICPCG:  Solving for p, Initial residual = 9.75777e-07, Final residual = 9.75777e-07, No Iterations 0
DICPCG:  Solving for p, Initial residual = 9.75777e-07, Final residual = 9.75777e-07, No Iterations 0
time step continuity errors : sum local = 1.32071e-08, global = -8.82737e-10, cumulative = -5.59671e-08
ExecutionTime = 0.88 s  ClockTime = 1 s

Time = 1100

Courant Number mean: 0.00200278 max: 0.00244682

 Coupling...
Starting up LIGGGHTS
Executing command: 'run 100    '
Setting up run at Wed Mar 15 13:43:53 2023

Memory usage per processor = 7.03305 Mbytes
    Step    Atoms 
  351000     1400 
  351100     1400 
Loop time of 0.0701219 on 4 procs for 100 steps with 1400 atoms, finish time Wed Mar 15 13:43:53 2023


Pair  time (%) = 0.0288244 (41.1061)
Neigh time (%) = 0 (0)
Comm  time (%) = 0.00180654 (2.57629)
Outpt time (%) = 0.000389365 (0.555268)
Other time (%) = 0.0391017 (55.7624)

Nlocal:    350 ave 811 max 0 min
Histogram: 2 0 0 0 0 0 0 1 0 1
Nghost:    1004.5 ave 2189 max 0 min
Histogram: 2 0 0 0 0 0 0 0 1 1
Neighs:    27688.5 ave 63853 max 0 min
Histogram: 2 0 0 0 0 0 0 1 0 1

Total # of neighbors = 110754
Ave neighs/atom = 79.11
Neighbor list builds = 0
Dangerous builds = 0
Executing command: 'write_restart ../DEM/liggghts.restartCFDEM'
System init for write_restart ...
LIGGGHTS finished

 timeStepFraction() = 1
[3] cellI = 80
[3] index = 1
[3] Us = (0.000519943 0.000231427 -0.000163963)
[3] Ur = (-0.000510116 -0.000260232 -0.00204925)
[3] dprim = 100
[3] phi = 1
[3] rho = 1
[3] nuf = 1
[3] voidfraction = 0.422009
[3] Rep = 0
[3] betaP = 0.0205815
[3] drag = (-5.49723 -2.80437 -22.0836)
[2] cellI = 80
[2] index = 0
[2] Us = (-7.25731e-05 1.03673e-05 -0.000685486)
[2] Ur = (0.000111504 -3.94812e-05 -0.00126092)
[2] dprim = 100
[2] phi = 1
[2] rho = 1
[2] nuf = 1
[2] voidfraction = 0.403115
[2] Rep = 0
[2] betaP = 0.0222324
[2] drag = (1.298 -0.459595 -14.6782)

Solver level total Eulerian momentum exchange:
  TotalForceImp:  (-344.286 2208.53 -119822)
  Warning, these values are based on latest Ksl and Us but prev. iteration U!

DILUPBiCG:  Solving for Ux, Initial residual = 0.549694, Final residual = 6.53769e-05, No Iterations 1
DILUPBiCG:  Solving for Uy, Initial residual = 0.486478, Final residual = 0.000110988, No Iterations 1
DILUPBiCG:  Solving for Uz, Initial residual = 0.683923, Final residual = 4.08792e-05, No Iterations 1
DICPCG:  Solving for p, Initial residual = 0.0167442, Final residual = 0.000826472, No Iterations 3
DICPCG:  Solving for p, Initial residual = 0.000855782, Final residual = 4.01593e-05, No Iterations 23
time step continuity errors : sum local = 5.27223e-07, global = -2.80244e-08, cumulative = -8.39915e-08
DICPCG:  Solving for p, Initial residual = 0.000408248, Final residual = 2.76843e-05, No Iterations 3
DICPCG:  Solving for p, Initial residual = 2.76663e-05, Final residual = 2.74959e-06, No Iterations 22
time step continuity errors : sum local = 3.39651e-08, global = 1.54828e-09, cumulative = -8.24432e-08
DICPCG:  Solving for p, Initial residual = 6.10905e-06, Final residual = 6.68462e-07, No Iterations 2
DICPCG:  Solving for p, Initial residual = 6.68463e-07, Final residual = 6.68463e-07, No Iterations 0
time step continuity errors : sum local = 8.2509e-09, global = 3.06259e-11, cumulative = -8.24126e-08
DICPCG:  Solving for p, Initial residual = 7.24742e-07, Final residual = 7.24742e-07, No Iterations 0
DICPCG:  Solving for p, Initial residual = 7.24742e-07, Final residual = 7.24742e-07, No Iterations 0
time step continuity errors : sum local = 8.94556e-09, global = -1.04895e-11, cumulative = -8.24231e-08
ExecutionTime = 0.96 s  ClockTime = 1 s

Time = 1200

Courant Number mean: 0.00200441 max: 0.00276961

 Coupling...
Starting up LIGGGHTS
Executing command: 'run 100    '
Setting up run at Wed Mar 15 13:43:53 2023

Memory usage per processor = 7.03305 Mbytes
    Step    Atoms 
  351100     1400 
  351200     1400 
Loop time of 0.0739091 on 4 procs for 100 steps with 1400 atoms, finish time Wed Mar 15 13:43:53 2023


Pair  time (%) = 0.0297551 (40.259)
Neigh time (%) = 0 (0)
Comm  time (%) = 0.00180982 (2.44871)
Outpt time (%) = 0.000412632 (0.558296)
Other time (%) = 0.0419316 (56.734)

Nlocal:    350 ave 809 max 0 min
Histogram: 2 0 0 0 0 0 0 1 0 1
Nghost:    1004 ave 2185 max 0 min
Histogram: 2 0 0 0 0 0 0 0 1 1
Neighs:    27721.5 ave 63733 max 0 min
Histogram: 2 0 0 0 0 0 0 1 0 1

Total # of neighbors = 110886
Ave neighs/atom = 79.2043
Neighbor list builds = 0
Dangerous builds = 0
Executing command: 'write_restart ../DEM/liggghts.restartCFDEM'
System init for write_restart ...
LIGGGHTS finished

 timeStepFraction() = 1
[3] cellI = 80
[3] index = 1
[3] Us = (9.0787e-06 -0.000447116 0.00153996)
[3] Ur = (0.000155579 0.000462928 -0.00383746)
[3] dprim = 100
[3] phi = 1
[3] rho = 1
[3] nuf = 1
[3] voidfraction = 0.423062
[3] Rep = 0
[3] betaP = 0.0205235
[3] drag = (1.67186 4.97465 -41.2376)
[2] cellI = 80
[2] index = 0
[2] Us = (0.000231975 0.000216786 0.0027623)
[2] Ur = (-0.000148994 -0.000209477 -0.00454111)
[2] dprim = 100
[2] phi = 1
[2] rho = 1
[2] nuf = 1
[2] voidfraction = 0.404385
[2] Rep = 0
[2] betaP = 0.022173
[2] drag = (-1.72978 -2.43197 -52.7212)

Solver level total Eulerian momentum exchange:
  TotalForceImp:  (-1605.08 -4392.56 331950)
  Warning, these values are based on latest Ksl and Us but prev. iteration U!

DILUPBiCG:  Solving for Ux, Initial residual = 0.635991, Final residual = 7.6957e-05, No Iterations 1
DILUPBiCG:  Solving for Uy, Initial residual = 0.613173, Final residual = 9.70595e-05, No Iterations 1
DILUPBiCG:  Solving for Uz, Initial residual = 0.925233, Final residual = 2.09309e-05, No Iterations 1
DICPCG:  Solving for p, Initial residual = 0.0309382, Final residual = 0.00170717, No Iterations 23
DICPCG:  Solving for p, Initial residual = 0.000582338, Final residual = 4.01599e-05, No Iterations 3
time step continuity errors : sum local = 1.45488e-06, global = -6.39895e-08, cumulative = -1.46413e-07
DICPCG:  Solving for p, Initial residual = 0.000266723, Final residual = 1.98236e-05, No Iterations 23
DICPCG:  Solving for p, Initial residual = 2.02745e-05, Final residual = 1.39589e-06, No Iterations 3
time step continuity errors : sum local = 4.94119e-08, global = 1.59804e-09, cumulative = -1.44815e-07
DICPCG:  Solving for p, Initial residual = 4.86933e-06, Final residual = 8.84573e-07, No Iterations 2
DICPCG:  Solving for p, Initial residual = 8.84574e-07, Final residual = 8.84574e-07, No Iterations 0
time step continuity errors : sum local = 3.1312e-08, global = 2.60252e-09, cumulative = -1.42212e-07
DICPCG:  Solving for p, Initial residual = 9.40413e-07, Final residual = 9.40413e-07, No Iterations 0
DICPCG:  Solving for p, Initial residual = 9.40413e-07, Final residual = 9.40413e-07, No Iterations 0
time step continuity errors : sum local = 3.32885e-08, global = 2.62593e-09, cumulative = -1.39586e-07
ExecutionTime = 1.04 s  ClockTime = 1 s

Time = 1300

Courant Number mean: 0.00200787 max: 0.00341078

 Coupling...
Starting up LIGGGHTS
Executing command: 'run 100    '
Setting up run at Wed Mar 15 13:43:53 2023

Memory usage per processor = 7.03305 Mbytes
    Step    Atoms 
  351200     1400 
  351300     1400 
Loop time of 0.0735244 on 4 procs for 100 steps with 1400 atoms, finish time Wed Mar 15 13:43:53 2023


Pair  time (%) = 0.0294483 (40.0524)
Neigh time (%) = 0 (0)
Comm  time (%) = 0.00180496 (2.45491)
Outpt time (%) = 0.000373467 (0.50795)
Other time (%) = 0.0418977 (56.9848)

Nlocal:    350 ave 811 max 0 min
Histogram: 2 0 0 0 0 0 0 1 0 1
Nghost:    1005 ave 2189 max 0 min
Histogram: 2 0 0 0 0 0 0 0 1 1
Neighs:    27725.5 ave 63961 max 0 min
Histogram: 2 0 0 0 0 0 0 1 0 1

Total # of neighbors = 110902
Ave neighs/atom = 79.2157
Neighbor list builds = 0
Dangerous builds = 0
Executing command: 'write_restart ../DEM/liggghts.restartCFDEM'
System init for write_restart ...
LIGGGHTS finished

 timeStepFraction() = 1
[2] cellI = 80
[2] index = 0
[2] Us = (-5.50334e-05 -5.72921e-06 -6.58195e-05)
[2] Ur = (2.4114e-05 3.78021e-05 -0.0014953)
[2] dprim = 100
[2] phi = 1
[2] rho = 1
[2] nuf = 1
[2] voidfraction = 0.406584
[2] Rep = 0
[2] betaP = 0.0219189
[2] drag = (0.276749 0.433843 -17.1611)
[3] cellI = 80
[3] index = 1
[3] Us = (2.47275e-06 -2.94552e-05 2.94713e-05)
[3] Ur = (0.000191562 0.000114872 -0.00233249)
[3] dprim = 100
[3] phi = 1
[3] rho = 1
[3] nuf = 1
[3] voidfraction = 0.424362
[3] Rep = 0
[3] betaP = 0.0203882
[3] drag = (2.04496 1.22628 -24.8998)

Solver level total Eulerian momentum exchange:
  TotalForceImp:  (1799.42 -444.117 183845)
  Warning, these values are based on latest Ksl and Us but prev. iteration U!

DILUPBiCG:  Solving for Ux, Initial residual = 0.480344, Final residual = 7.20928e-05, No Iterations 1
DILUPBiCG:  Solving for Uy, Initial residual = 0.4918, Final residual = 0.000110101, No Iterations 1
DILUPBiCG:  Solving for Uz, Initial residual = 0.649021, Final residual = 4.74813e-05, No Iterations 1
DICPCG:  Solving for p, Initial residual = 0.0107435, Final residual = 0.000951034, No Iterations 22
DICPCG:  Solving for p, Initial residual = 0.00170962, Final residual = 0.00013008, No Iterations 3
time step continuity errors : sum local = 2.56722e-06, global = 2.12638e-07, cumulative = 7.30524e-08
DICPCG:  Solving for p, Initial residual = 0.000554372, Final residual = 4.72895e-05, No Iterations 11
DICPCG:  Solving for p, Initial residual = 4.73015e-05, Final residual = 3.01693e-06, No Iterations 22
time step continuity errors : sum local = 5.94433e-08, global = -1.23103e-09, cumulative = 7.18213e-08
DICPCG:  Solving for p, Initial residual = 9.66686e-06, Final residual = 8.90127e-07, No Iterations 7
DICPCG:  Solving for p, Initial residual = 8.90118e-07, Final residual = 8.90118e-07, No Iterations 0
time step continuity errors : sum local = 1.77113e-08, global = -6.66066e-09, cumulative = 6.51607e-08
DICPCG:  Solving for p, Initial residual = 9.46003e-07, Final residual = 9.46003e-07, No Iterations 0
DICPCG:  Solving for p, Initial residual = 9.46003e-07, Final residual = 9.46003e-07, No Iterations 0
time step continuity errors : sum local = 1.88233e-08, global = -6.94836e-09, cumulative = 5.82123e-08
ExecutionTime = 1.13 s  ClockTime = 1 s

Time = 1400

Courant Number mean: 0.00200768 max: 0.00347218

 Coupling...
Starting up LIGGGHTS
Executing command: 'run 100    '
Setting up run at Wed Mar 15 13:43:53 2023

Memory usage per processor = 7.03305 Mbytes
    Step    Atoms 
  351300     1400 
  351400     1400 
Loop time of 0.066992 on 4 procs for 100 steps with 1400 atoms, finish time Wed Mar 15 13:43:53 2023


Pair  time (%) = 0.0277455 (41.4161)
Neigh time (%) = 0 (0)
Comm  time (%) = 0.00181492 (2.70916)
Outpt time (%) = 0.00036073 (0.538467)
Other time (%) = 0.0370709 (55.3363)

Nlocal:    350 ave 812 max 0 min
Histogram: 2 0 0 0 0 0 0 1 0 1
Nghost:    1005 ave 2188 max 0 min
Histogram: 2 0 0 0 0 0 0 0 1 1
Neighs:    27675.8 ave 63930 max 0 min
Histogram: 2 0 0 0 0 0 0 1 0 1

Total # of neighbors = 110703
Ave neighs/atom = 79.0736
Neighbor list builds = 0
Dangerous builds = 0
Executing command: 'write_restart ../DEM/liggghts.restartCFDEM'
System init for write_restart ...
LIGGGHTS finished

 timeStepFraction() = 1
[2] cellI = 80
[2] index = 0
[2] Us = (-0.000339317 0.000789769 -0.00404145)
[2] Ur = (0.000339308 -0.000884507 0.00235282)
[2] dprim = 100
[2] phi = 1
[2] rho = 1
[2] nuf = 1
[2] voidfraction = 0.403247
[2] Rep = 0
[2] betaP = 0.0222425
[2] drag = (3.95162 -10.3011 27.4012)
[3] cellI = 80
[3] index = 1
[3] Us = (-0.000654799 0.000460078 -0.00275493)
[3] Ur = (0.000670636 -0.000482163 0.000890937)
[3] dprim = 100
[3] phi = 1
[3] rho = 1
[3] nuf = 1
[3] voidfraction = 0.422017
[3] Rep = 0
[3] betaP = 0.0205648
[3] drag = (7.22122 -5.19179 9.59336)

Solver level total Eulerian momentum exchange:
  TotalForceImp:  (1195.79 4958.61 -435856)
  Warning, these values are based on latest Ksl and Us but prev. iteration U!

DILUPBiCG:  Solving for Ux, Initial residual = 0.519924, Final residual = 6.44214e-05, No Iterations 1
DILUPBiCG:  Solving for Uy, Initial residual = 0.467708, Final residual = 8.48012e-05, No Iterations 1
DILUPBiCG:  Solving for Uz, Initial residual = 0.834499, Final residual = 3.04132e-05, No Iterations 1
DICPCG:  Solving for p, Initial residual = 0.024413, Final residual = 0.00172626, No Iterations 23
DICPCG:  Solving for p, Initial residual = 0.000724604, Final residual = 5.25095e-05, No Iterations 3
time step continuity errors : sum local = 2.51284e-06, global = 1.10059e-07, cumulative = 1.68271e-07
DICPCG:  Solving for p, Initial residual = 0.000372716, Final residual = 2.03169e-05, No Iterations 23
DICPCG:  Solving for p, Initial residual = 2.08192e-05, Final residual = 1.60971e-06, No Iterations 3
time step continuity errors : sum local = 7.51096e-08, global = -2.8829e-09, cumulative = 1.65389e-07
DICPCG:  Solving for p, Initial residual = 6.62175e-06, Final residual = 7.20162e-07, No Iterations 3
DICPCG:  Solving for p, Initial residual = 7.20164e-07, Final residual = 7.20164e-07, No Iterations 0
time step continuity errors : sum local = 3.36027e-08, global = -1.79438e-09, cumulative = 1.63594e-07
DICPCG:  Solving for p, Initial residual = 8.08453e-07, Final residual = 8.08453e-07, No Iterations 0
DICPCG:  Solving for p, Initial residual = 8.08453e-07, Final residual = 8.08453e-07, No Iterations 0
time step continuity errors : sum local = 3.77223e-08, global = -1.75362e-09, cumulative = 1.61841e-07
ExecutionTime = 1.2 s  ClockTime = 1 s

Time = 1500

Courant Number mean: 0.00200879 max: 0.00373125

 Coupling...
Starting up LIGGGHTS
Executing command: 'run 100    '
Setting up run at Wed Mar 15 13:43:53 2023

Memory usage per processor = 7.03305 Mbytes
    Step    Atoms 
  351400     1400 
  351500     1400 
Loop time of 0.0706843 on 4 procs for 100 steps with 1400 atoms, finish time Wed Mar 15 13:43:53 2023


Pair  time (%) = 0.0290658 (41.1206)
Neigh time (%) = 0 (0)
Comm  time (%) = 0.00180584 (2.5548)
Outpt time (%) = 0.000400641 (0.566803)
Other time (%) = 0.039412 (55.7578)

Nlocal:    350 ave 811 max 0 min
Histogram: 2 0 0 0 0 0 0 1 0 1
Nghost:    1004 ave 2187 max 0 min
Histogram: 2 0 0 0 0 0 0 0 1 1
Neighs:    27682.8 ave 63777 max 0 min
Histogram: 2 0 0 0 0 0 0 1 0 1

Total # of neighbors = 110731
Ave neighs/atom = 79.0936
Neighbor list builds = 0
Dangerous builds = 0
Executing command: 'write_restart ../DEM/liggghts.restartCFDEM'
System init for write_restart ...
LIGGGHTS finished

 timeStepFraction() = 1
[3] cellI = 80
[3] index = 1
[3] Us = (0.000875017 -0.000158725 0.000906107)
[3] Ur = (-0.00105175 0.000269103 -0.00254975)
[3] dprim = 100
[3] phi = 1
[3] rho = 1
[3] nuf = 1
[3] voidfraction = 0.420896
[3] Rep = 0
[3] betaP = 0.0206868
[3] drag = (-11.3921 2.9148 -27.6178)
[2] cellI = 80
[2] index = 0
[2] Us = (3.06881e-05 0.000779756 0.00111506)
[2] Ur = (-2.41436e-05 -0.00074462 -0.00307527)
[2] dprim = 100
[2] phi = 1
[2] rho = 1
[2] nuf = 1
[2] voidfraction = 0.40188
[2] Rep = 0
[2] betaP = 0.02238
[2] drag = (-0.282918 -8.72554 -36.0364)

Solver level total Eulerian momentum exchange:
  TotalForceImp:  (859.718 26.3407 -8108.95)
  Warning, these values are based on latest Ksl and Us but prev. iteration U!

DILUPBiCG:  Solving for Ux, Initial residual = 0.546006, Final residual = 8.24582e-05, No Iterations 1
DILUPBiCG:  Solving for Uy, Initial residual = 0.546934, Final residual = 0.000156925, No Iterations 1
DILUPBiCG:  Solving for Uz, Initial residual = 0.897974, Final residual = 5.82611e-05, No Iterations 1
DICPCG:  Solving for p, Initial residual = 0.0148173, Final residual = 0.00075766, No Iterations 23
DICPCG:  Solving for p, Initial residual = 0.0149723, Final residual = 0.000905619, No Iterations 3
time step continuity errors : sum local = 2.14757e-06, global = -5.19465e-08, cumulative = 1.09894e-07
DICPCG:  Solving for p, Initial residual = 0.00689711, Final residual = 0.000287827, No Iterations 23
DICPCG:  Solving for p, Initial residual = 0.000440205, Final residual = 2.12839e-05, No Iterations 3
time step continuity errors : sum local = 3.28628e-08, global = 1.72788e-09, cumulative = 1.11622e-07
DICPCG:  Solving for p, Initial residual = 0.000139897, Final residual = 1.00628e-05, No Iterations 4
DICPCG:  Solving for p, Initial residual = 1.00637e-05, Final residual = 4.89223e-07, No Iterations 22
time step continuity errors : sum local = 7.55087e-10, global = 5.05815e-11, cumulative = 1.11672e-07
DICPCG:  Solving for p, Initial residual = 2.82287e-06, Final residual = 9.33462e-07, No Iterations 1
DICPCG:  Solving for p, Initial residual = 9.33462e-07, Final residual = 9.33462e-07, No Iterations 0
time step continuity errors : sum local = 1.43883e-09, global = -5.21343e-11, cumulative = 1.1162e-07
ExecutionTime = 1.28 s  ClockTime = 1 s

Time = 1600

Courant Number mean: 0.00200581 max: 0.00266639

 Coupling...
Starting up LIGGGHTS
Executing command: 'run 100    '
Setting up run at Wed Mar 15 13:43:53 2023

Memory usage per processor = 7.03305 Mbytes
    Step    Atoms 
  351500     1400 
  351600     1400 
Loop time of 0.0740003 on 4 procs for 100 steps with 1400 atoms, finish time Wed Mar 15 13:43:53 2023


Pair  time (%) = 0.0298409 (40.3254)
Neigh time (%) = 0 (0)
Comm  time (%) = 0.00181059 (2.44674)
Outpt time (%) = 0.000407784 (0.551057)
Other time (%) = 0.041941 (56.6768)

Nlocal:    350 ave 808 max 0 min
Histogram: 2 0 0 0 0 0 0 1 0 1
Nghost:    1004.75 ave 2185 max 0 min
Histogram: 2 0 0 0 0 0 0 0 1 1
Neighs:    27729.8 ave 63638 max 0 min
Histogram: 2 0 0 0 0 0 0 1 0 1

Total # of neighbors = 110919
Ave neighs/atom = 79.2279
Neighbor list builds = 0
Dangerous builds = 0
Executing command: 'write_restart ../DEM/liggghts.restartCFDEM'
System init for write_restart ...
LIGGGHTS finished

 timeStepFraction() = 1
[3] cellI = 80
[3] index = 1
[3] Us = (-0.00106278 -0.00147032 0.00292031)
[3] Ur = (0.00146886 0.00154253 -0.00492292)
[3] dprim = 100
[3] phi = 1
[3] rho = 1
[3] nuf = 1
[3] voidfraction = 0.425165
[3] Rep = 0
[3] betaP = 0.0203743
[3] drag = (15.6697 16.4557 -52.5174)
[2] cellI = 80
[2] index = 0
[2] Us = (-0.000484967 -0.00200136 0.00487616)
[2] Ur = (0.000619425 0.00222873 -0.00667364)
[2] dprim = 100
[2] phi = 1
[2] rho = 1
[2] nuf = 1
[2] voidfraction = 0.408242
[2] Rep = 0
[2] betaP = 0.0218665
[2] drag = (7.09198 25.5173 -76.4084)

Solver level total Eulerian momentum exchange:
  TotalForceImp:  (-5276.38 -8796.5 824647)
  Warning, these values are based on latest Ksl and Us but prev. iteration U!

DILUPBiCG:  Solving for Ux, Initial residual = 0.692048, Final residual = 0.000100497, No Iterations 1
DILUPBiCG:  Solving for Uy, Initial residual = 0.742209, Final residual = 0.000115287, No Iterations 1
DILUPBiCG:  Solving for Uz, Initial residual = 0.947934, Final residual = 2.60986e-05, No Iterations 1
DICPCG:  Solving for p, Initial residual = 0.386866, Final residual = 0.0337004, No Iterations 23
DICPCG:  Solving for p, Initial residual = 0.000694127, Final residual = 5.2068e-05, No Iterations 3
time step continuity errors : sum local = 4.57442e-06, global = -1.85301e-07, cumulative = -7.36805e-08
DICPCG:  Solving for p, Initial residual = 0.000206501, Final residual = 1.50005e-05, No Iterations 23
DICPCG:  Solving for p, Initial residual = 1.52459e-05, Final residual = 1.39198e-06, No Iterations 3
time step continuity errors : sum local = 1.20232e-07, global = 4.09294e-09, cumulative = -6.95875e-08
DICPCG:  Solving for p, Initial residual = 4.74649e-06, Final residual = 7.78526e-07, No Iterations 3
DICPCG:  Solving for p, Initial residual = 7.78528e-07, Final residual = 7.78528e-07, No Iterations 0
time step continuity errors : sum local = 6.72443e-08, global = 2.19145e-09, cumulative = -6.73961e-08
DICPCG:  Solving for p, Initial residual = 8.4152e-07, Final residual = 8.4152e-07, No Iterations 0
DICPCG:  Solving for p, Initial residual = 8.4152e-07, Final residual = 8.4152e-07, No Iterations 0
time step continuity errors : sum local = 7.26851e-08, global = 2.13044e-09, cumulative = -6.52656e-08
ExecutionTime = 1.37 s  ClockTime = 1 s

Time = 1700

Courant Number mean: 0.00202172 max: 0.00564106

 Coupling...
Starting up LIGGGHTS
Executing command: 'run 100    '
Setting up run at Wed Mar 15 13:43:53 2023

Memory usage per processor = 7.03305 Mbytes
    Step    Atoms 
  351600     1400 
  351700     1400 
Loop time of 0.0685343 on 4 procs for 100 steps with 1400 atoms, finish time Wed Mar 15 13:43:53 2023


Pair  time (%) = 0.0268134 (39.1241)
Neigh time (%) = 0 (0)
Comm  time (%) = 0.0018055 (2.63445)
Outpt time (%) = 0.000349732 (0.510302)
Other time (%) = 0.0395656 (57.7312)

Nlocal:    350 ave 811 max 0 min
Histogram: 2 0 0 0 0 0 0 1 0 1
Nghost:    1005 ave 2189 max 0 min
Histogram: 2 0 0 0 0 0 0 0 1 1
Neighs:    27700.5 ave 63940 max 0 min
Histogram: 2 0 0 0 0 0 0 1 0 1

Total # of neighbors = 110802
Ave neighs/atom = 79.1443
Neighbor list builds = 0
Dangerous builds = 0
Executing command: 'write_restart ../DEM/liggghts.restartCFDEM'
System init for write_restart ...
LIGGGHTS finished

 timeStepFraction() = 1
[3] cellI = 80
[3] index = 1
[3] Us = (0.000734186 0.000659233 -0.00207121)
[3] Ur = (-0.0008573 -0.000961653 -0.000659463)
[3] dprim = 100
[3] phi = 1
[3] rho = 1
[3] nuf = 1
[3] voidfraction = 0.425023
[3] Rep = 0
[3] betaP = 0.0203175
[3] drag = (-9.12016 -10.2303 -7.01553)
[2] cellI = 80
[2] index = 0
[2] Us = (0.000599255 3.69548e-05 -0.00273032)
[2] Ur = (-0.000729518 -0.000230667 0.0013998)
[2] dprim = 100
[2] phi = 1
[2] rho = 1
[2] nuf = 1
[2] voidfraction = 0.408161
[2] Rep = 0
[2] betaP = 0.0217782
[2] drag = (-8.3187 -2.6303 15.962)

Solver level total Eulerian momentum exchange:
  TotalForceImp:  (3886.86 311.171 -53633)
  Warning, these values are based on latest Ksl and Us but prev. iteration U!

DILUPBiCG:  Solving for Ux, Initial residual = 0.431998, Final residual = 9.35149e-05, No Iterations 1
DILUPBiCG:  Solving for Uy, Initial residual = 0.525309, Final residual = 0.000121358, No Iterations 1
DILUPBiCG:  Solving for Uz, Initial residual = 0.81441, Final residual = 9.66317e-05, No Iterations 1
DICPCG:  Solving for p, Initial residual = 0.0161429, Final residual = 0.000770629, No Iterations 23
DICPCG:  Solving for p, Initial residual = 0.00502685, Final residual = 0.000220938, No Iterations 3
time step continuity errors : sum local = 2.94797e-06, global = 1.33946e-07, cumulative = 6.86805e-08
DICPCG:  Solving for p, Initial residual = 0.00293246, Final residual = 0.000166896, No Iterations 23
DICPCG:  Solving for p, Initial residual = 0.000191949, Final residual = 1.37835e-05, No Iterations 3
time step continuity errors : sum local = 1.59522e-07, global = -6.57637e-09, cumulative = 6.21041e-08
DICPCG:  Solving for p, Initial residual = 4.51408e-05, Final residual = 3.0182e-06, No Iterations 4
DICPCG:  Solving for p, Initial residual = 3.01826e-06, Final residual = 4.98226e-07, No Iterations 21
time step continuity errors : sum local = 5.76537e-09, global = 1.01768e-10, cumulative = 6.22059e-08
DICPCG:  Solving for p, Initial residual = 1.45639e-06, Final residual = 4.22328e-07, No Iterations 1
DICPCG:  Solving for p, Initial residual = 4.22328e-07, Final residual = 4.22328e-07, No Iterations 0
time step continuity errors : sum local = 4.88479e-09, global = 3.84799e-10, cumulative = 6.25907e-08
ExecutionTime = 1.44 s  ClockTime = 1 s

Time = 1800

Courant Number mean: 0.00202509 max: 0.0054487

 Coupling...
Starting up LIGGGHTS
Executing command: 'run 100    '
Setting up run at Wed Mar 15 13:43:53 2023

Memory usage per processor = 7.03305 Mbytes
    Step    Atoms 
  351700     1400 
  351800     1400 
Loop time of 0.0652744 on 4 procs for 100 steps with 1400 atoms, finish time Wed Mar 15 13:43:53 2023


Pair  time (%) = 0.026891 (41.1968)
Neigh time (%) = 0 (0)
Comm  time (%) = 0.00181018 (2.77319)
Outpt time (%) = 0.000365882 (0.560529)
Other time (%) = 0.0362074 (55.4695)

Nlocal:    350 ave 813 max 0 min
Histogram: 2 0 0 0 0 0 0 1 0 1
Nghost:    1003.5 ave 2188 max 0 min
Histogram: 2 0 0 0 0 0 0 0 1 1
Neighs:    27604.5 ave 63854 max 0 min
Histogram: 2 0 0 0 0 0 0 1 0 1

Total # of neighbors = 110418
Ave neighs/atom = 78.87
Neighbor list builds = 0
Dangerous builds = 0
Executing command: 'write_restart ../DEM/liggghts.restartCFDEM'
System init for write_restart ...
LIGGGHTS finished

 timeStepFraction() = 1
[3] cellI = 80
[3] index = 1
[3] Us = (0.00253943 0.00287588 -0.00338419)
[3] Ur = (-0.00274148 -0.00344051 -0.00019039)
[3] dprim = 100
[3] phi = 1
[3] rho = 1
[3] nuf = 1
[3] voidfraction = 0.418396
[3] Rep = 0
[3] betaP = 0.0209283
[3] drag = (-30.0412 -37.7012 -2.0863)
[2] cellI = 80
[2] index = 0
[2] Us = (-0.000480105 2.44367e-05 -0.00699483)
[2] Ur = (0.000336776 -0.000241769 0.00624091)
[2] dprim = 100
[2] phi = 1
[2] rho = 1
[2] nuf = 1
[2] voidfraction = 0.400879
[2] Rep = 0
[2] betaP = 0.0225273
[2] drag = (3.97235 -2.85173 73.6131)

Solver level total Eulerian momentum exchange:
  TotalForceImp:  (2178.69 11659.1 -1.11184e+06)
  Warning, these values are based on latest Ksl and Us but prev. iteration U!

DILUPBiCG:  Solving for Ux, Initial residual = 0.472919, Final residual = 8.92145e-05, No Iterations 1
DILUPBiCG:  Solving for Uy, Initial residual = 0.46647, Final residual = 0.000109813, No Iterations 1
DILUPBiCG:  Solving for Uz, Initial residual = 0.896646, Final residual = 5.82697e-05, No Iterations 1
DICPCG:  Solving for p, Initial residual = 0.0793218, Final residual = 0.00691436, No Iterations 23
DICPCG:  Solving for p, Initial residual = 0.000719233, Final residual = 6.32793e-05, No Iterations 3
time step continuity errors : sum local = 7.35639e-06, global = 3.14703e-07, cumulative = 3.77294e-07
DICPCG:  Solving for p, Initial residual = 0.00023385, Final residual = 1.26417e-05, No Iterations 22
DICPCG:  Solving for p, Initial residual = 1.28366e-05, Final residual = 9.53537e-07, No Iterations 4
time step continuity errors : sum local = 1.09084e-07, global = 2.80593e-09, cumulative = 3.801e-07
DICPCG:  Solving for p, Initial residual = 4.77122e-06, Final residual = 7.32624e-07, No Iterations 3
DICPCG:  Solving for p, Initial residual = 7.32626e-07, Final residual = 7.32626e-07, No Iterations 0
time step continuity errors : sum local = 8.38109e-08, global = -4.78134e-09, cumulative = 3.75318e-07
DICPCG:  Solving for p, Initial residual = 7.85936e-07, Final residual = 7.85936e-07, No Iterations 0
DICPCG:  Solving for p, Initial residual = 7.85936e-07, Final residual = 7.85936e-07, No Iterations 0
time step continuity errors : sum local = 8.99095e-08, global = -5.16305e-09, cumulative = 3.70155e-07
ExecutionTime = 1.52 s  ClockTime = 1 s

Time = 1900

Courant Number mean: 0.00206775 max: 0.00669852

 Coupling...
Starting up LIGGGHTS
Executing command: 'run 100    '
Setting up run at Wed Mar 15 13:43:53 2023

Memory usage per processor = 7.03305 Mbytes
    Step    Atoms 
  351800     1400 
  351900     1400 
Loop time of 0.0713236 on 4 procs for 100 steps with 1400 atoms, finish time Wed Mar 15 13:43:53 2023


Pair  time (%) = 0.0292926 (41.0701)
Neigh time (%) = 0 (0)
Comm  time (%) = 0.00182365 (2.55687)
Outpt time (%) = 0.000408084 (0.572159)
Other time (%) = 0.0397992 (55.8009)

Nlocal:    350 ave 807 max 0 min
Histogram: 2 0 0 0 0 0 0 1 0 1
Nghost:    1003.75 ave 2183 max 0 min
Histogram: 2 0 0 0 0 0 0 0 1 1
Neighs:    27656 ave 63245 max 0 min
Histogram: 2 0 0 0 0 0 0 1 0 1

Total # of neighbors = 110624
Ave neighs/atom = 79.0171
Neighbor list builds = 0
Dangerous builds = 0
Executing command: 'write_restart ../DEM/liggghts.restartCFDEM'
System init for write_restart ...
LIGGGHTS finished

 timeStepFraction() = 1
[2] cellI = 80
[2] index = 0
[2] Us = (-0.000228888 0.00113224 0.00873629)
[2] Ur = (-0.000283818 -0.000771012 -0.0111533)
[2] dprim = 100
[2] phi = 1
[2] rho = 1
[2] nuf = 1
[2] voidfraction = 0.401602
[2] Rep = 0
[2] betaP = 0.0225461
[2] drag = (-3.35051 -9.1019 -131.666)
[3] cellI = 80
[3] index = 1
[3] Us = (0.000779132 -0.00309544 0.00514216)
[3] Ur = (-0.0010253 0.00345007 -0.00837049)
[3] dprim = 100
[3] phi = 1
[3] rho = 1
[3] nuf = 1
[3] voidfraction = 0.420874
[3] Rep = 0
[3] betaP = 0.0207996
[3] drag = (-11.1662 37.5734 -91.1599)

Solver level total Eulerian momentum exchange:
  TotalForceImp:  (4970.09 -1837.72 770201)
  Warning, these values are based on latest Ksl and Us but prev. iteration U!

DILUPBiCG:  Solving for Ux, Initial residual = 0.68749, Final residual = 0.000119033, No Iterations 1
DILUPBiCG:  Solving for Uy, Initial residual = 0.585126, Final residual = 0.000122849, No Iterations 1
DILUPBiCG:  Solving for Uz, Initial residual = 0.936696, Final residual = 6.48171e-05, No Iterations 1
DICPCG:  Solving for p, Initial residual = 0.0130615, Final residual = 0.000776724, No Iterations 23
DICPCG:  Solving for p, Initial residual = 0.0010042, Final residual = 4.46169e-05, No Iterations 3
time step continuity errors : sum local = 3.94913e-06, global = -2.05249e-07, cumulative = 1.64906e-07
DICPCG:  Solving for p, Initial residual = 0.000319189, Final residual = 2.62825e-05, No Iterations 23
DICPCG:  Solving for p, Initial residual = 2.72856e-05, Final residual = 9.97493e-07, No Iterations 3
time step continuity errors : sum local = 8.49759e-08, global = 5.69668e-09, cumulative = 1.70603e-07
DICPCG:  Solving for p, Initial residual = 5.50579e-06, Final residual = 5.34064e-07, No Iterations 3
DICPCG:  Solving for p, Initial residual = 5.34065e-07, Final residual = 5.34065e-07, No Iterations 0
time step continuity errors : sum local = 4.54958e-08, global = 2.59255e-09, cumulative = 1.73195e-07
DICPCG:  Solving for p, Initial residual = 5.98284e-07, Final residual = 5.98284e-07, No Iterations 0
DICPCG:  Solving for p, Initial residual = 5.98284e-07, Final residual = 5.98284e-07, No Iterations 0
time step continuity errors : sum local = 5.09664e-08, global = 2.54478e-09, cumulative = 1.7574e-07
ExecutionTime = 1.6 s  ClockTime = 1 s

Time = 2000

Courant Number mean: 0.00202298 max: 0.00447932

 Coupling...
Starting up LIGGGHTS
Executing command: 'run 100    '
Setting up run at Wed Mar 15 13:43:53 2023

Memory usage per processor = 7.03305 Mbytes
    Step    Atoms 
  351900     1400 
  352000     1400 
Loop time of 0.0729071 on 4 procs for 100 steps with 1400 atoms, finish time Wed Mar 15 13:43:54 2023


Pair  time (%) = 0.0286085 (39.2397)
Neigh time (%) = 0 (0)
Comm  time (%) = 0.00180706 (2.47858)
Outpt time (%) = 0.000384675 (0.527624)
Other time (%) = 0.0421068 (57.7541)

Nlocal:    350 ave 807 max 0 min
Histogram: 2 0 0 0 0 0 0 1 0 1
Nghost:    1005.75 ave 2187 max 0 min
Histogram: 2 0 0 0 0 0 0 0 1 1
Neighs:    27751 ave 63588 max 0 min
Histogram: 2 0 0 0 0 0 0 1 0 1

Total # of neighbors = 111004
Ave neighs/atom = 79.2886
Neighbor list builds = 0
Dangerous builds = 0
Executing command: 'write_restart ../DEM/liggghts.restartCFDEM'
System init for write_restart ...
LIGGGHTS finished

 timeStepFraction() = 1
[3] cellI = 81
[3] index = 1
[3] Us = (-0.001178 -0.00378645 0.00265788)
[3] Ur = (0.00205962 0.00414491 -0.00607226)
[3] dprim = 100
[3] phi = 1
[3] rho = 1
[3] nuf = 1
[3] voidfraction = 0.429209
[3] Rep = 0
[3] betaP = 0.0200816
[3] drag = (21.6563 43.5826 -63.848)
[2] cellI = 81
[2] index = 0
[2] Us = (0.000300767 -0.00402256 0.00222879)
[2] Ur = (6.26835e-05 0.00426337 -0.00312658)
[2] dprim = 100
[2] phi = 1
[2] rho = 1
[2] nuf = 1
[2] voidfraction = 0.412586
[2] Rep = 0
[2] betaP = 0.0214486
[2] drag = (0.703963 47.8795 -35.1129)

Solver level total Eulerian momentum exchange:
  TotalForceImp:  (-14116.6 -12437.8 1.73071e+06)
  Warning, these values are based on latest Ksl and Us but prev. iteration U!

DILUPBiCG:  Solving for Ux, Initial residual = 0.699722, Final residual = 9.98426e-05, No Iterations 1
DILUPBiCG:  Solving for Uy, Initial residual = 0.656486, Final residual = 0.000122284, No Iterations 1
DILUPBiCG:  Solving for Uz, Initial residual = 0.893343, Final residual = 7.52426e-05, No Iterations 1
DICPCG:  Solving for p, Initial residual = 0.0141029, Final residual = 0.00101553, No Iterations 23
DICPCG:  Solving for p, Initial residual = 0.000483738, Final residual = 3.22848e-05, No Iterations 4
time step continuity errors : sum local = 5.81524e-06, global = -2.67399e-07, cumulative = -9.16586e-08
DICPCG:  Solving for p, Initial residual = 0.000193517, Final residual = 1.17591e-05, No Iterations 23
DICPCG:  Solving for p, Initial residual = 1.18607e-05, Final residual = 7.26218e-07, No Iterations 4
time step continuity errors : sum local = 1.29636e-07, global = 5.29361e-09, cumulative = -8.6365e-08
DICPCG:  Solving for p, Initial residual = 3.3057e-06, Final residual = 7.22901e-07, No Iterations 2
DICPCG:  Solving for p, Initial residual = 7.22902e-07, Final residual = 7.22902e-07, No Iterations 0
time step continuity errors : sum local = 1.29043e-07, global = 8.73201e-09, cumulative = -7.7633e-08
DICPCG:  Solving for p, Initial residual = 7.73309e-07, Final residual = 7.73309e-07, No Iterations 0
DICPCG:  Solving for p, Initial residual = 7.73309e-07, Final residual = 7.73309e-07, No Iterations 0
time step continuity errors : sum local = 1.38041e-07, global = 8.83882e-09, cumulative = -6.87941e-08
ExecutionTime = 1.69 s  ClockTime = 2 s

Time = 2100

Courant Number mean: 0.00219888 max: 0.00967895

 Coupling...
Starting up LIGGGHTS
Executing command: 'run 100    '
Setting up run at Wed Mar 15 13:43:54 2023

Memory usage per processor = 7.03305 Mbytes
    Step    Atoms 
  352000     1400 
  352100     1400 
Loop time of 0.0648386 on 4 procs for 100 steps with 1400 atoms, finish time Wed Mar 15 13:43:54 2023


Pair  time (%) = 0.0247099 (38.1099)
Neigh time (%) = 0 (0)
Comm  time (%) = 0.00180938 (2.79059)
Outpt time (%) = 0.000345275 (0.532515)
Other time (%) = 0.037974 (58.567)

Nlocal:    350 ave 817 max 0 min
Histogram: 2 0 0 0 0 0 0 1 0 1
Nghost:    1002.5 ave 2192 max 0 min
Histogram: 2 0 0 0 0 0 0 0 1 1
Neighs:    27579.5 ave 64281 max 0 min
Histogram: 2 0 0 0 0 0 0 1 0 1

Total # of neighbors = 110318
Ave neighs/atom = 78.7986
Neighbor list builds = 0
Dangerous builds = 0
Executing command: 'write_restart ../DEM/liggghts.restartCFDEM'
System init for write_restart ...
LIGGGHTS finished

 timeStepFraction() = 1
[3] cellI = 80
[3] index = 1
[3] Us = (0.000327458 0.000104367 -0.00389964)
[3] Ur = (-0.000361744 -0.00054439 0.000281207)
[3] dprim = 100
[3] phi = 1
[3] rho = 1
[3] nuf = 1
[3] voidfraction = 0.422869
[3] Rep = 0
[3] betaP = 0.0204844
[3] drag = (-3.87993 -5.83891 3.01612)
[2] cellI = 80
[2] index = 0
[2] Us = (0.00180984 0.0013183 -0.00928561)
[2] Ur = (-0.00187541 -0.00110764 0.00881723)
[2] dprim = 100
[2] phi = 1
[2] rho = 1
[2] nuf = 1
[2] voidfraction = 0.406044
[2] Rep = 0
[2] betaP = 0.0221008
[2] drag = (-21.7021 -12.8176 102.032)

Solver level total Eulerian momentum exchange:
  TotalForceImp:  (18182.5 -2353.01 -1.37658e+06)
  Warning, these values are based on latest Ksl and Us but prev. iteration U!

DILUPBiCG:  Solving for Ux, Initial residual = 0.555968, Final residual = 8.11001e-05, No Iterations 1
DILUPBiCG:  Solving for Uy, Initial residual = 0.485955, Final residual = 0.000103831, No Iterations 1
DILUPBiCG:  Solving for Uz, Initial residual = 0.935362, Final residual = 9.11634e-05, No Iterations 1
DICPCG:  Solving for p, Initial residual = 0.0134572, Final residual = 0.000594248, No Iterations 23
DICPCG:  Solving for p, Initial residual = 0.000694078, Final residual = 4.42365e-05, No Iterations 3
time step continuity errors : sum local = 6.78782e-06, global = 2.00184e-07, cumulative = 1.31389e-07
DICPCG:  Solving for p, Initial residual = 0.000372866, Final residual = 1.76235e-05, No Iterations 23
DICPCG:  Solving for p, Initial residual = 1.83068e-05, Final residual = 1.18208e-06, No Iterations 3
time step continuity errors : sum local = 1.74493e-07, global = -5.14113e-09, cumulative = 1.26248e-07
DICPCG:  Solving for p, Initial residual = 6.16473e-06, Final residual = 9.05192e-07, No Iterations 2
DICPCG:  Solving for p, Initial residual = 9.05193e-07, Final residual = 9.05193e-07, No Iterations 0
time step continuity errors : sum local = 1.33619e-07, global = -8.41212e-09, cumulative = 1.17836e-07
DICPCG:  Solving for p, Initial residual = 9.63484e-07, Final residual = 9.63484e-07, No Iterations 0
DICPCG:  Solving for p, Initial residual = 9.63484e-07, Final residual = 9.63484e-07, No Iterations 0
time step continuity errors : sum local = 1.42224e-07, global = -8.50158e-09, cumulative = 1.09335e-07
ExecutionTime = 1.76 s  ClockTime = 2 s

Time = 2200

Courant Number mean: 0.00209675 max: 0.00611446

 Coupling...
Starting up LIGGGHTS
Executing command: 'run 100    '
Setting up run at Wed Mar 15 13:43:54 2023

Memory usage per processor = 7.03305 Mbytes
    Step    Atoms 
  352100     1400 
  352200     1400 
Loop time of 0.0663208 on 4 procs for 100 steps with 1400 atoms, finish time Wed Mar 15 13:43:54 2023


Pair  time (%) = 0.0273725 (41.2728)
Neigh time (%) = 0 (0)
Comm  time (%) = 0.00180701 (2.72465)
Outpt time (%) = 0.000380455 (0.573658)
Other time (%) = 0.0367609 (55.4289)

Nlocal:    350 ave 815 max 0 min
Histogram: 2 0 0 0 0 0 0 1 0 1
Nghost:    1000.75 ave 2185 max 0 min
Histogram: 2 0 0 0 0 0 0 0 1 1
Neighs:    27425.5 ave 63500 max 0 min
Histogram: 2 0 0 0 0 0 0 1 0 1

Total # of neighbors = 109702
Ave neighs/atom = 78.3586
Neighbor list builds = 0
Dangerous builds = 0
Executing command: 'write_restart ../DEM/liggghts.restartCFDEM'
System init for write_restart ...
LIGGGHTS finished

 timeStepFraction() = 1
[2] cellI = 80
[2] index = 0
[2] Us = (-0.0062292 0.000778244 -0.0151287)
[2] Ur = (0.00630841 -0.000893881 0.013857)
[2] dprim = 100
[2] phi = 1
[2] rho = 1
[2] nuf = 1
[2] voidfraction = 0.392925
[2] Rep = 0
[2] betaP = 0.0234422
[2] drag = (77.4313 -10.9717 170.085)
[3] cellI = 80
[3] index = 1
[3] Us = (0.00205322 0.00150922 -0.00936304)
[3] Ur = (-0.00180357 -0.00154915 0.00819797)
[3] dprim = 100
[3] phi = 1
[3] rho = 1
[3] nuf = 1
[3] voidfraction = 0.410231
[3] Rep = 0
[3] betaP = 0.0217142
[3] drag = (-20.5057 -17.6131 93.2068)

Solver level total Eulerian momentum exchange:
  TotalForceImp:  (1833.7 44196.6 -1.96786e+06)
  Warning, these values are based on latest Ksl and Us but prev. iteration U!

DILUPBiCG:  Solving for Ux, Initial residual = 0.723204, Final residual = 0.000126438, No Iterations 1
DILUPBiCG:  Solving for Uy, Initial residual = 0.683454, Final residual = 0.000158228, No Iterations 1
DILUPBiCG:  Solving for Uz, Initial residual = 0.807542, Final residual = 0.000142043, No Iterations 1
DICPCG:  Solving for p, Initial residual = 0.0103819, Final residual = 0.000747647, No Iterations 22
DICPCG:  Solving for p, Initial residual = 0.000544598, Final residual = 4.62346e-05, No Iterations 4
time step continuity errors : sum local = 9.43486e-06, global = -3.26284e-07, cumulative = -2.1695e-07
DICPCG:  Solving for p, Initial residual = 0.000203968, Final residual = 1.08641e-05, No Iterations 22
DICPCG:  Solving for p, Initial residual = 1.09176e-05, Final residual = 8.59798e-07, No Iterations 4
time step continuity errors : sum local = 1.74485e-07, global = 6.45272e-09, cumulative = -2.10497e-07
[...]
DILUPBiCG:  Solving for Uy, Initial residual = 0.0328954, Final residual = 0.000132615, No Iterations 1
DILUPBiCG:  Solving for Uz, Initial residual = 0.057919, Final residual = 0.000814566, No Iterations 1
DICPCG:  Solving for p, Initial residual = 0.215396, Final residual = 0.0194618, No Iterations 5
DICPCG:  Solving for p, Initial residual = 0.0177804, Final residual = 0.00171556, No Iterations 17
time step continuity errors : sum local = 0.00202109, global = 0.000128778, cumulative = -0.153892
DICPCG:  Solving for p, Initial residual = 0.102224, Final residual = 0.0063471, No Iterations 1
DICPCG:  Solving for p, Initial residual = 0.00621818, Final residual = 0.000609038, No Iterations 18
time step continuity errors : sum local = 0.00123719, global = -5.68579e-05, cumulative = -0.153949
DICPCG:  Solving for p, Initial residual = 0.0444056, Final residual = 0.00344483, No Iterations 19
DICPCG:  Solving for p, Initial residual = 0.00290196, Final residual = 0.000288962, No Iterations 5
time step continuity errors : sum local = 0.000747826, global = -0.000137765, cumulative = -0.154087
DICPCG:  Solving for p, Initial residual = 0.0269606, Final residual = 0.00177234, No Iterations 20
DICPCG:  Solving for p, Initial residual = 0.00160027, Final residual = 7.90211e-07, No Iterations 26
time step continuity errors : sum local = 2.30797e-06, global = 2.84828e-08, cumulative = -0.154087
ExecutionTime = 3.45 s  ClockTime = 3 s

Time = 9400

Courant Number mean: 242.956 max: 296.038

 Coupling...
Starting up LIGGGHTS
Executing command: 'run 100    '
Setting up run at Wed Mar 15 13:43:55 2023

Memory usage per processor = 11.9359 Mbytes
    Step    Atoms 
  359300        0 
  359400        0 
Loop time of 0.000466938 on 4 procs for 100 steps with 0 atoms, finish time Wed Mar 15 13:43:55 2023


Pair  time (%) = 2.15728e-05 (4.62005)
Neigh time (%) = 0 (0)
Comm  time (%) = 1.36412e-05 (2.92143)
Outpt time (%) = 1.936e-06 (0.414617)
Other time (%) = 0.000429788 (92.0439)

Nlocal:    0 ave 0 max 0 min
Histogram: 4 0 0 0 0 0 0 0 0 0
Nghost:    0 ave 0 max 0 min
Histogram: 4 0 0 0 0 0 0 0 0 0
Neighs:    0 ave 0 max 0 min
Histogram: 4 0 0 0 0 0 0 0 0 0

Total # of neighbors = 0
Neighbor list builds = 0
Dangerous builds = 0
Executing command: 'write_restart ../DEM/liggghts.restartCFDEM'
System init for write_restart ...
LIGGGHTS finished

 timeStepFraction() = 1

Solver level total Eulerian momentum exchange:
  TotalForceImp:  (0 0 0)
  Warning, these values are based on latest Ksl and Us but prev. iteration U!

DILUPBiCG:  Solving for Ux, Initial residual = 0.0268438, Final residual = 7.21015e-05, No Iterations 1
DILUPBiCG:  Solving for Uy, Initial residual = 0.0365643, Final residual = 0.000127098, No Iterations 1
DILUPBiCG:  Solving for Uz, Initial residual = 0.163905, Final residual = 0.00067284, No Iterations 1
DICPCG:  Solving for p, Initial residual = 0.290058, Final residual = 0.0266453, No Iterations 1
DICPCG:  Solving for p, Initial residual = 0.0227875, Final residual = 0.00143124, No Iterations 22
time step continuity errors : sum local = 0.0065214, global = -6.15219e-05, cumulative = -0.154148
DICPCG:  Solving for p, Initial residual = 0.442594, Final residual = 0.0423144, No Iterations 1
DICPCG:  Solving for p, Initial residual = 0.0615454, Final residual = 0.00286951, No Iterations 22
time step continuity errors : sum local = 0.00359851, global = -4.74527e-06, cumulative = -0.154153
DICPCG:  Solving for p, Initial residual = 0.115834, Final residual = 0.00567746, No Iterations 1
DICPCG:  Solving for p, Initial residual = 0.00579743, Final residual = 0.000530993, No Iterations 21
time step continuity errors : sum local = 0.00116923, global = -3.78767e-06, cumulative = -0.154157
DICPCG:  Solving for p, Initial residual = 0.0782235, Final residual = 0.00581525, No Iterations 1
DICPCG:  Solving for p, Initial residual = 0.00597018, Final residual = 9.59303e-07, No Iterations 27
time step continuity errors : sum local = 1.93042e-06, global = 2.12034e-08, cumulative = -0.154157
ExecutionTime = 3.45 s  ClockTime = 3 s

Time = 9500

Courant Number mean: 240.351 max: 292.738

 Coupling...
Starting up LIGGGHTS
Executing command: 'run 100    '
Setting up run at Wed Mar 15 13:43:55 2023

Memory usage per processor = 11.9359 Mbytes
    Step    Atoms 
  359400        0 
  359500        0 
Loop time of 0.00047695 on 4 procs for 100 steps with 0 atoms, finish time Wed Mar 15 13:43:55 2023


Pair  time (%) = 2.2713e-05 (4.76214)
Neigh time (%) = 0 (0)
Comm  time (%) = 1.38165e-05 (2.89685)
Outpt time (%) = 1.972e-06 (0.413461)
Other time (%) = 0.000438448 (91.9276)

Nlocal:    0 ave 0 max 0 min
Histogram: 4 0 0 0 0 0 0 0 0 0
Nghost:    0 ave 0 max 0 min
Histogram: 4 0 0 0 0 0 0 0 0 0
Neighs:    0 ave 0 max 0 min
Histogram: 4 0 0 0 0 0 0 0 0 0

Total # of neighbors = 0
Neighbor list builds = 0
Dangerous builds = 0
Executing command: 'write_restart ../DEM/liggghts.restartCFDEM'
System init for write_restart ...
LIGGGHTS finished

 timeStepFraction() = 1

Solver level total Eulerian momentum exchange:
  TotalForceImp:  (0 0 0)
  Warning, these values are based on latest Ksl and Us but prev. iteration U!

DILUPBiCG:  Solving for Ux, Initial residual = 0.0303145, Final residual = 0.000361926, No Iterations 1
DILUPBiCG:  Solving for Uy, Initial residual = 0.0388879, Final residual = 0.00014781, No Iterations 1
DILUPBiCG:  Solving for Uz, Initial residual = 0.115509, Final residual = 0.00118533, No Iterations 1
DICPCG:  Solving for p, Initial residual = 0.319076, Final residual = 0.0233152, No Iterations 2
DICPCG:  Solving for p, Initial residual = 0.0236248, Final residual = 0.000931607, No Iterations 22
time step continuity errors : sum local = 0.00173995, global = 2.92986e-05, cumulative = -0.154128
DICPCG:  Solving for p, Initial residual = 0.172419, Final residual = 0.0151475, No Iterations 1
DICPCG:  Solving for p, Initial residual = 0.0150279, Final residual = 0.000757692, No Iterations 22
time step continuity errors : sum local = 0.00259048, global = -5.98081e-05, cumulative = -0.154187
DICPCG:  Solving for p, Initial residual = 0.0954129, Final residual = 0.00279883, No Iterations 1
DICPCG:  Solving for p, Initial residual = 0.00281598, Final residual = 0.000136465, No Iterations 17
time step continuity errors : sum local = 0.000362543, global = -4.57951e-05, cumulative = -0.154233
DICPCG:  Solving for p, Initial residual = 0.0653171, Final residual = 0.00366208, No Iterations 1
DICPCG:  Solving for p, Initial residual = 0.00374024, Final residual = 7.2457e-07, No Iterations 26
time step continuity errors : sum local = 1.68584e-06, global = 1.89825e-08, cumulative = -0.154233
ExecutionTime = 3.46 s  ClockTime = 3 s

Time = 9600

Courant Number mean: 237.212 max: 287.66

 Coupling...
Starting up LIGGGHTS
Executing command: 'run 100    '
Setting up run at Wed Mar 15 13:43:55 2023

Memory usage per processor = 11.9359 Mbytes
    Step    Atoms 
  359500        0 
  359600        0 
Loop time of 0.000465767 on 4 procs for 100 steps with 0 atoms, finish time Wed Mar 15 13:43:55 2023


Pair  time (%) = 2.21882e-05 (4.76381)
Neigh time (%) = 0 (0)
Comm  time (%) = 1.3244e-05 (2.84348)
Outpt time (%) = 1.88025e-06 (0.403689)
Other time (%) = 0.000428455 (91.989)

Nlocal:    0 ave 0 max 0 min
Histogram: 4 0 0 0 0 0 0 0 0 0
Nghost:    0 ave 0 max 0 min
Histogram: 4 0 0 0 0 0 0 0 0 0
Neighs:    0 ave 0 max 0 min
Histogram: 4 0 0 0 0 0 0 0 0 0

Total # of neighbors = 0
Neighbor list builds = 0
Dangerous builds = 0
Executing command: 'write_restart ../DEM/liggghts.restartCFDEM'
System init for write_restart ...
LIGGGHTS finished

 timeStepFraction() = 1

Solver level total Eulerian momentum exchange:
  TotalForceImp:  (0 0 0)
  Warning, these values are based on latest Ksl and Us but prev. iteration U!

DILUPBiCG:  Solving for Ux, Initial residual = 0.0327865, Final residual = 0.000385792, No Iterations 1
DILUPBiCG:  Solving for Uy, Initial residual = 0.0401437, Final residual = 0.000201557, No Iterations 1
DILUPBiCG:  Solving for Uz, Initial residual = 0.156287, Final residual = 0.00144203, No Iterations 1
DICPCG:  Solving for p, Initial residual = 0.31571, Final residual = 0.0274205, No Iterations 1
DICPCG:  Solving for p, Initial residual = 0.024548, Final residual = 0.002387, No Iterations 7
time step continuity errors : sum local = 0.00791782, global = 9.93295e-05, cumulative = -0.154134
DICPCG:  Solving for p, Initial residual = 0.217359, Final residual = 0.0163363, No Iterations 1
DICPCG:  Solving for p, Initial residual = 0.0176837, Final residual = 0.000896947, No Iterations 21
time step continuity errors : sum local = 0.002552, global = 1.57188e-05, cumulative = -0.154118
DICPCG:  Solving for p, Initial residual = 0.09926, Final residual = 0.00845438, No Iterations 1
DICPCG:  Solving for p, Initial residual = 0.00856296, Final residual = 0.000711045, No Iterations 21
time step continuity errors : sum local = 0.00170802, global = 4.7061e-05, cumulative = -0.154071
DICPCG:  Solving for p, Initial residual = 0.103532, Final residual = 0.00571933, No Iterations 1
DICPCG:  Solving for p, Initial residual = 0.00615302, Final residual = 4.56713e-07, No Iterations 28
time step continuity errors : sum local = 7.79484e-07, global = -7.60009e-09, cumulative = -0.154071
ExecutionTime = 3.46 s  ClockTime = 3 s

Time = 9700

Courant Number mean: 234.587 max: 285.943

 Coupling...
Starting up LIGGGHTS
Executing command: 'run 100    '
Setting up run at Wed Mar 15 13:43:55 2023

Memory usage per processor = 11.9359 Mbytes
    Step    Atoms 
  359600        0 
  359700        0 
Loop time of 0.00046958 on 4 procs for 100 steps with 0 atoms, finish time Wed Mar 15 13:43:55 2023


Pair  time (%) = 2.19595e-05 (4.67642)
Neigh time (%) = 0 (0)
Comm  time (%) = 1.33337e-05 (2.83951)
Outpt time (%) = 1.89375e-06 (0.403286)
Other time (%) = 0.000432393 (92.0808)

Nlocal:    0 ave 0 max 0 min
Histogram: 4 0 0 0 0 0 0 0 0 0
Nghost:    0 ave 0 max 0 min
Histogram: 4 0 0 0 0 0 0 0 0 0
Neighs:    0 ave 0 max 0 min
Histogram: 4 0 0 0 0 0 0 0 0 0

Total # of neighbors = 0
Neighbor list builds = 0
Dangerous builds = 0
Executing command: 'write_restart ../DEM/liggghts.restartCFDEM'
System init for write_restart ...
LIGGGHTS finished

 timeStepFraction() = 1

Solver level total Eulerian momentum exchange:
  TotalForceImp:  (0 0 0)
  Warning, these values are based on latest Ksl and Us but prev. iteration U!

DILUPBiCG:  Solving for Ux, Initial residual = 0.0353554, Final residual = 0.000129589, No Iterations 1
DILUPBiCG:  Solving for Uy, Initial residual = 0.0400541, Final residual = 0.000221434, No Iterations 1
DILUPBiCG:  Solving for Uz, Initial residual = 0.117439, Final residual = 0.00557552, No Iterations 1
DICPCG:  Solving for p, Initial residual = 0.346418, Final residual = 0.0345843, No Iterations 1
DICPCG:  Solving for p, Initial residual = 0.035576, Final residual = 0.00291124, No Iterations 22
time step continuity errors : sum local = 0.00524521, global = 9.28367e-06, cumulative = -0.154062
DICPCG:  Solving for p, Initial residual = 0.567477, Final residual = 0.0471716, No Iterations 1
DICPCG:  Solving for p, Initial residual = 0.0709993, Final residual = 0.00708483, No Iterations 7
time step continuity errors : sum local = 0.00412297, global = -4.26856e-05, cumulative = -0.154105
DICPCG:  Solving for p, Initial residual = 0.409797, Final residual = 0.0218805, No Iterations 1
DICPCG:  Solving for p, Initial residual = 0.0257783, Final residual = 0.00194268, No Iterations 21
time step continuity errors : sum local = 0.000820564, global = -4.38882e-07, cumulative = -0.154105
DICPCG:  Solving for p, Initial residual = 0.269657, Final residual = 0.0078071, No Iterations 1
DICPCG:  Solving for p, Initial residual = 0.0082504, Final residual = 6.29459e-07, No Iterations 28
time step continuity errors : sum local = 2.43291e-07, global = 4.61729e-09, cumulative = -0.154105
ExecutionTime = 3.47 s  ClockTime = 3 s

Time = 9800

Courant Number mean: 234.458 max: 279.635

 Coupling...
Starting up LIGGGHTS
Executing command: 'run 100    '
Setting up run at Wed Mar 15 13:43:55 2023

Memory usage per processor = 11.9359 Mbytes
    Step    Atoms 
  359700        0 
  359800        0 
Loop time of 0.000464297 on 4 procs for 100 steps with 0 atoms, finish time Wed Mar 15 13:43:55 2023


Pair  time (%) = 2.25128e-05 (4.84878)
Neigh time (%) = 0 (0)
Comm  time (%) = 1.33387e-05 (2.87289)
Outpt time (%) = 2.02925e-06 (0.437059)
Other time (%) = 0.000426416 (91.8413)

Nlocal:    0 ave 0 max 0 min
Histogram: 4 0 0 0 0 0 0 0 0 0
Nghost:    0 ave 0 max 0 min
Histogram: 4 0 0 0 0 0 0 0 0 0
Neighs:    0 ave 0 max 0 min
Histogram: 4 0 0 0 0 0 0 0 0 0

Total # of neighbors = 0
Neighbor list builds = 0
Dangerous builds = 0
Executing command: 'write_restart ../DEM/liggghts.restartCFDEM'
System init for write_restart ...
LIGGGHTS finished

 timeStepFraction() = 1

Solver level total Eulerian momentum exchange:
  TotalForceImp:  (0 0 0)
  Warning, these values are based on latest Ksl and Us but prev. iteration U!

DILUPBiCG:  Solving for Ux, Initial residual = 0.0298795, Final residual = 0.000137149, No Iterations 1
DILUPBiCG:  Solving for Uy, Initial residual = 0.0346827, Final residual = 0.000218251, No Iterations 1
DILUPBiCG:  Solving for Uz, Initial residual = 0.0516809, Final residual = 0.000733348, No Iterations 1
DICPCG:  Solving for p, Initial residual = 0.388036, Final residual = 0.0362664, No Iterations 8
DICPCG:  Solving for p, Initial residual = 0.0345901, Final residual = 0.00329716, No Iterations 16
time step continuity errors : sum local = 0.00138092, global = -9.00156e-05, cumulative = -0.154195
DICPCG:  Solving for p, Initial residual = 0.152342, Final residual = 0.0095261, No Iterations 1
DICPCG:  Solving for p, Initial residual = 0.0094377, Final residual = 0.000733028, No Iterations 20
time step continuity errors : sum local = 0.000639126, global = 4.68754e-05, cumulative = -0.154148
DICPCG:  Solving for p, Initial residual = 0.0738966, Final residual = 0.00163102, No Iterations 2
DICPCG:  Solving for p, Initial residual = 0.00163791, Final residual = 0.000144027, No Iterations 22
time step continuity errors : sum local = 0.000112553, global = 6.86157e-06, cumulative = -0.154141
DICPCG:  Solving for p, Initial residual = 0.0359005, Final residual = 0.0014782, No Iterations 2
DICPCG:  Solving for p, Initial residual = 0.00147452, Final residual = 9.24465e-07, No Iterations 26
time step continuity errors : sum local = 7.86471e-07, global = 3.76e-09, cumulative = -0.154141
ExecutionTime = 3.47 s  ClockTime = 3 s

Time = 9900

Courant Number mean: 235.348 max: 277.401

 Coupling...
Starting up LIGGGHTS
Executing command: 'run 100    '
Setting up run at Wed Mar 15 13:43:55 2023

Memory usage per processor = 11.9359 Mbytes
    Step    Atoms 
  359800        0 
  359900        0 
Loop time of 0.000473416 on 4 procs for 100 steps with 0 atoms, finish time Wed Mar 15 13:43:55 2023


Pair  time (%) = 2.24888e-05 (4.75032)
Neigh time (%) = 0 (0)
Comm  time (%) = 1.3039e-05 (2.75424)
Outpt time (%) = 1.99175e-06 (0.420719)
Other time (%) = 0.000435896 (92.0747)

Nlocal:    0 ave 0 max 0 min
Histogram: 4 0 0 0 0 0 0 0 0 0
Nghost:    0 ave 0 max 0 min
Histogram: 4 0 0 0 0 0 0 0 0 0
Neighs:    0 ave 0 max 0 min
Histogram: 4 0 0 0 0 0 0 0 0 0

Total # of neighbors = 0
Neighbor list builds = 0
Dangerous builds = 0
Executing command: 'write_restart ../DEM/liggghts.restartCFDEM'
System init for write_restart ...
LIGGGHTS finished

 timeStepFraction() = 1

Solver level total Eulerian momentum exchange:
  TotalForceImp:  (0 0 0)
  Warning, these values are based on latest Ksl and Us but prev. iteration U!

DILUPBiCG:  Solving for Ux, Initial residual = 0.0285385, Final residual = 0.000343934, No Iterations 1
DILUPBiCG:  Solving for Uy, Initial residual = 0.0314198, Final residual = 0.000212894, No Iterations 1
DILUPBiCG:  Solving for Uz, Initial residual = 0.0659911, Final residual = 0.00210738, No Iterations 1
DICPCG:  Solving for p, Initial residual = 0.263861, Final residual = 0.0231172, No Iterations 3
DICPCG:  Solving for p, Initial residual = 0.0213116, Final residual = 0.00205416, No Iterations 12
time step continuity errors : sum local = 0.00228634, global = 0.00048634, cumulative = -0.153655
DICPCG:  Solving for p, Initial residual = 0.181252, Final residual = 0.0179469, No Iterations 1
DICPCG:  Solving for p, Initial residual = 0.0191613, Final residual = 0.00161388, No Iterations 19
time step continuity errors : sum local = 0.00155028, global = 0.000118657, cumulative = -0.153536
DICPCG:  Solving for p, Initial residual = 0.0589634, Final residual = 0.00106077, No Iterations 2
DICPCG:  Solving for p, Initial residual = 0.00103666, Final residual = 8.2575e-05, No Iterations 21
time step continuity errors : sum local = 0.000105618, global = 2.43374e-06, cumulative = -0.153534
DICPCG:  Solving for p, Initial residual = 0.0326974, Final residual = 0.000602607, No Iterations 2
DICPCG:  Solving for p, Initial residual = 0.000604531, Final residual = 5.83351e-07, No Iterations 26
time step continuity errors : sum local = 7.07067e-07, global = 7.75746e-09, cumulative = -0.153534
ExecutionTime = 3.48 s  ClockTime = 3 s

Time = 10000

Courant Number mean: 236.946 max: 275.711

 Coupling...
Starting up LIGGGHTS
Executing command: 'run 100    '
Setting up run at Wed Mar 15 13:43:55 2023

Memory usage per processor = 11.9359 Mbytes
    Step    Atoms 
  359900        0 
  360000        0 
Loop time of 0.00134577 on 4 procs for 100 steps with 0 atoms, finish time Wed Mar 15 13:43:55 2023


Pair  time (%) = 2.27057e-05 (1.6872)
Neigh time (%) = 0 (0)
Comm  time (%) = 1.26638e-05 (0.941005)
Outpt time (%) = 0.000838617 (62.3151)
Other time (%) = 0.000471782 (35.0567)

Nlocal:    0 ave 0 max 0 min
Histogram: 4 0 0 0 0 0 0 0 0 0
Nghost:    0 ave 0 max 0 min
Histogram: 4 0 0 0 0 0 0 0 0 0
Neighs:    0 ave 0 max 0 min
Histogram: 4 0 0 0 0 0 0 0 0 0

Total # of neighbors = 0
Neighbor list builds = 0
Dangerous builds = 0
Executing command: 'write_restart ../DEM/liggghts.restartCFDEM'
System init for write_restart ...
LIGGGHTS finished

 timeStepFraction() = 1

Solver level total Eulerian momentum exchange:
  TotalForceImp:  (0 0 0)
  Warning, these values are based on latest Ksl and Us but prev. iteration U!

DILUPBiCG:  Solving for Ux, Initial residual = 0.0276913, Final residual = 7.17427e-05, No Iterations 1
DILUPBiCG:  Solving for Uy, Initial residual = 0.0296216, Final residual = 7.20161e-05, No Iterations 1
DILUPBiCG:  Solving for Uz, Initial residual = 0.0817956, Final residual = 0.000577239, No Iterations 1
DICPCG:  Solving for p, Initial residual = 0.257508, Final residual = 0.0197693, No Iterations 2
DICPCG:  Solving for p, Initial residual = 0.0193116, Final residual = 0.00158042, No Iterations 14
time step continuity errors : sum local = 0.00205376, global = -0.000579269, cumulative = -0.154113
DICPCG:  Solving for p, Initial residual = 0.195571, Final residual = 0.0148761, No Iterations 1
DICPCG:  Solving for p, Initial residual = 0.0158971, Final residual = 0.0012679, No Iterations 21
time step continuity errors : sum local = 0.0014373, global = 3.27007e-06, cumulative = -0.15411
DICPCG:  Solving for p, Initial residual = 0.0761486, Final residual = 0.00275518, No Iterations 1
DICPCG:  Solving for p, Initial residual = 0.00271829, Final residual = 0.000176222, No Iterations 22
time step continuity errors : sum local = 0.000226581, global = -8.34146e-07, cumulative = -0.154111
DICPCG:  Solving for p, Initial residual = 0.036382, Final residual = 0.00217318, No Iterations 1
DICPCG:  Solving for p, Initial residual = 0.00215399, Final residual = 4.07564e-07, No Iterations 27
time step continuity errors : sum local = 5.8882e-07, global = 6.10185e-09, cumulative = -0.154111
ExecutionTime = 3.48 s  ClockTime = 3 s

End

Finalising parallel run
