
//   CFDEM_run   //

/home/pse/Filtration_Simulator/examples/uniform/CFDEM/CFD

/*---------------------------------------------------------------------------*\
| =========                 |                                                 |
| \\      /  F ield         | OpenFOAM: The Open Source CFD Toolbox           |
|  \\    /   O peration     | Version:  5.x                                   |
|   \\  /    A nd           | Web:      www.OpenFOAM.org                      |
|    \\/     M anipulation  |                                                 |
\*---------------------------------------------------------------------------*/
Build  : 5.x-7f7d351b741b
Exec   : cfdemSolverPiso -parallel
Date   : Mar 08 2023
Time   : 10:29:39
Host   : "CFDEM1"
PID    : 97354
I/O    : uncollated
Case   : /home/pse/Filtration_Simulator/examples/uniform/CFDEM/CFD
nProcs : 4
Slaves : 
3
(
"CFDEM1.97355"
"CFDEM1.97356"
"CFDEM1.97357"
)

Pstream initialized with:
    floatTransfer      : 0
    nProcsSimpleSum    : 0
    commsType          : nonBlocking
    polling iterations : 0
sigFpe : Enabling floating point exception trapping (FOAM_SIGFPE).
fileModificationChecking : Monitoring run-time modified files using timeStampMaster (fileModificationSkew 10)
allowSystemOperations : Allowing user-supplied system call operations

// * * * * * * * * * * * * * * * * * * * * * * * * * * * * * * * * * * * * * //
Create time

Overriding DimensionedConstants according to controlDict
    c [0 1 -1 0 0 0 0] 2.99792e+08
    G [-1 3 -2 0 0 0 0] 6.67429e-20
    h [1 2 -1 0 0 0 0] 6.62607e-13
    e [0 0 1 0 0 1 0] 1.60218e-07
    me [1 0 0 0 0 0 0] 9.10938e-19
    mp [1 0 0 0 0 0 0] 1.67262e-15
    mu [1 0 0 0 0 0 0] 1.66054e-15
    NA [0 0 0 0 -1 0 0] 6.02214e+23
    k [1 2 -2 -1 0 0 0] 1.38065e-08
    Pstd [1 -1 -2 0 0 0 0] 100
    Tstd [0 0 0 1 0 0 0] 298.15
    hr [1 2 -1 0 0 0 0] 1.05457e-13
    mu0 [1 1 -2 0 0 -2 0] 1.25664e-06
    epsilon0 [-1 -3 4 0 0 2 0] 8.85421e-12
    Z0 [1 2 -3 0 0 -2 0] 376.73
    kappa [1 3 -4 0 0 -2 0] 8.98752e+09
    G0 [-1 -2 3 0 0 2 0] 0.0774812
    KJ [-1 -2 2 0 0 1 0] 483599
    phi0 [1 2 -2 0 0 -1 0] 2.06783e-06
    RK [1 2 -3 0 0 -2 0] 25.8127
    alpha [0 0 0 0 0 0 0] 7.29737
    Rinf [0 -1 0 0 0 0 0] 10973.8
    a0 [0 1 0 0 0 0 0] 5.29177e-05
    re [0 1 0 0 0 0 0] 0.00281795
    Eh [1 2 -2 0 0 0 0] 4.35975
    R [1 2 -2 -1 -1 0 0] 8.31447e+15
    F [0 0 1 0 -1 1 0] 9.64856e+16
    sigma [1 0 -3 -4 0 0 0] 5.67041e-11
    b [0 1 0 1 0 0 0] 2897.77
    c1 [1 4 -3 0 0 0 0] 374176
    c2 [0 1 0 1 0 0 0] 14387.7
Create mesh for time = 0


PISO: Operating solver in PISO mode

Reading field p

Reading physical velocity field U
Note: only if voidfraction at boundary is 1, U is superficial velocity!!!


Reading momentum exchange field Ksl


Reading voidfraction field voidfraction = (Vgas/Vparticle)


Creating density field rho

Reading particle velocity field Us

Reading/calculating face flux field phi

Generating interstitial face flux field phiByVoidfraction

Selecting incompressible transport model Newtonian
Selecting turbulence model type laminar
Selecting laminar stress model Stokes
No finite volume options present


Reading g
Selecting locateModel engine
Selecting dataExchangeModel twoWayMPI
Starting up LIGGGHTS for first time execution
Executing input script '../DEM/liggghts_run.txt'
LIGGGHTS (Version LIGGGHTS-PUBLIC 3.8.0, compiled 2022-08-09-18:54:32 by pse, git commit 86544c3f1215bc9744d7929e3eacf53ba086af9e)
Reading restart file ...
WARNING: Restart file version does not match LIGGGHTS version (../read_restart.cpp:507)
   --> restart file = Version LIGGGHTS-PUBLIC 3.8.0, compiled 2022-08-09-18:52:33 by pse, git commit 86544c3f1215bc9744d7929e3eacf53ba086af9e
   --> LIGGGHTS = Version LIGGGHTS-PUBLIC 3.8.0, compiled 2022-08-09-18:54:32 by pse, git commit 86544c3f1215bc9744d7929e3eacf53ba086af9e
version 3 8
version 3 8
version 3 8
version 3 8
  orthogonal box = (-5000 -5000 -40000) to (5000 5000 50000)
  1 by 1 by 4 MPI processor grid
  1400 atoms
INFO: mesh file (../DEM/stl_file/box.stl) is required, but data will be taken from restart file (../fix_mesh.cpp:417)
Resetting global state of Fix cad Style mesh/surface from restart file info
INFO: mesh file (../DEM/stl_file/inlet.stl) is required, but data will be taken from restart file (../fix_mesh.cpp:417)
Resetting global state of Fix inface Style mesh/surface from restart file info
Resetting global state of Fix n_neighs_mesh_cad Style property/atom from restart file info
Resetting per-atom state of Fix n_neighs_mesh_cad Style property/atom from restart file info
Resetting global state of Fix tracker_cad Style contacthistory/mesh from restart file info
Resetting per-atom state of Fix tracker_cad Style contacthistory/mesh from restart file info
1400 atoms in group nve_group
couple_every as specified in LIGGGHTS is overriden by calling external program (../fix_cfd_coupling.cpp:114)
Resetting global state of Fix contacthistory Style contacthistory from restart file info
Resetting per-atom state of Fix contacthistory Style contacthistory from restart file info
Setting up run at Wed Mar  8 10:29:39 2023

Import and parallelization of mesh cad containing 2 triangle(s) successful
Import and parallelization of mesh inface containing 2 triangle(s) successful
Memory usage per processor = 7.0564 Mbytes
    Step    Atoms 
  350000     1400 
Loop time of 1.96775e-06 on 4 procs for 0 steps with 1400 atoms, finish time Wed Mar  8 10:29:39 2023


Pair  time (%) = 0 (0)
Neigh time (%) = 0 (0)
Comm  time (%) = 0 (0)
Outpt time (%) = 0 (0)
Other time (%) = 1.96775e-06 (100)

Nlocal:    350 ave 804 max 0 min
Histogram: 2 0 0 0 0 0 0 1 0 1
Nghost:    570.75 ave 1225 max 0 min
Histogram: 2 0 0 0 0 0 0 0 1 1
Neighs:    8394.25 ave 19047 max 0 min
Histogram: 2 0 0 0 0 0 0 1 0 1

Total # of neighbors = 33577
Ave neighs/atom = 23.9836
Neighbor list builds = 0
Dangerous builds = 0
Selecting IOModel basicIO
Selecting probeModel off
Selecting voidFractionModel divided
Selecting averagingModel dense
Selecting clockModel off
start clock measurement at t >2000
Selecting smoothingModel off
Selecting meshMotionModel noMeshMotion

CFDEMcoupling version: cfdem-3.8.1
, compatible to LIGGGHTS version: 3.8.0
, compatible to OF version and build: 5.x-commit-538044ac05c4672b37c7df607dca1116fa88df88

You are currently using:
OF version: 5.x
OF build: 5.x-7f7d351b741b
CFDEM build: 3.8.0-3-gb237264-dirty

cg is set to: 1
LIGGGHTS hosts 1 atom types.
If BC are important, please provide volScalarFields -imp/expParticleForces-
ignoring ddt(voidfraction)
Selecting momCoupleModel implicitCouple

implicit momentum exchange field calculate if alphaP larger than : 1
Selecting forceModel GidaspowDrag
 Selecting forceSubModel ImEx
 reading switches:
  looking for treatForceExplicit ...  not found in dict, using default. treatForceExplicit = false
  looking for implForceDEM ...  not found in dict, using default. implForceDEM = false
  looking for verbose ...  found in dict. verbose = true
  looking for interpolation ...  found in dict. interpolation = true
  looking for scalarViscosity ...  not found in dict, using default. scalarViscosity = false

--> FOAM Warning : Please make sure you use the new nomenclature for verbose force model settings, please have a look at the forceSubModel doc.
Selecting forceModel gradPForce
 Selecting forceSubModel ImEx
 reading switches:
  looking for treatForceExplicit ...  not found in dict, using default. treatForceExplicit = true
  looking for verbose ...  not found in dict, using default. verbose = false
  looking for interpolation ...  found in dict. interpolation = true

Selecting forceModel viscForce
 Selecting forceSubModel ImEx
 reading switches:
  looking for treatForceExplicit ...  not found in dict, using default. treatForceExplicit = true
  looking for verbose ...  not found in dict, using default. verbose = false
  looking for interpolation ...  found in dict. interpolation = true
  looking for scalarViscosity ...  not found in dict, using default. scalarViscosity = false

Selecting forceModel fieldStore
Creating field stored_U
Selecting liggghtsCommandModel runLiggghts ,provide dicts, numbered from 0 to n
Selecting liggghtsCommandModel writeLiggghts ,provide dicts, numbered from 0 to n
writeLiggghts: A restart file writeName_write_restart ../DEM/liggghts.restartCFDEM is written.
solving volume averaged Navier Stokes equations of type A
check if Archimedes lift is necessary (depends on pressure formulation)


Starting time loop

--> FOAM Warning : 
    From function void Foam::timeControl::read(const Foam::dictionary&)
    in file db/functionObjects/timeControl/timeControl.C at line 89
    Reading "/home/pse/Filtration_Simulator/examples/uniform/CFDEM/CFD/system/controlDict.functions.probes" from line 125 to line 137
    Using deprecated 'outputControl'
    Please use 'writeControl' with 'writeInterval'
Time = 1000

Courant Number mean: 0.001 max: 0.001

 Coupling...
Starting up LIGGGHTS
Executing command: 'run 100    '
Setting up run at Wed Mar  8 10:29:39 2023

Memory usage per processor = 7.0564 Mbytes
    Step    Atoms 
  350000     1400 
  350100     1400 
Loop time of 0.0370747 on 4 procs for 100 steps with 1400 atoms, finish time Wed Mar  8 10:29:39 2023


Pair  time (%) = 0.0143458 (38.6942)
Neigh time (%) = 0 (0)
Comm  time (%) = 0.00106443 (2.87105)
Outpt time (%) = 0.000200609 (0.541094)
Other time (%) = 0.0214639 (57.8937)

Nlocal:    350 ave 804 max 0 min
Histogram: 2 0 0 0 0 0 0 1 0 1
Nghost:    570.75 ave 1225 max 0 min
Histogram: 2 0 0 0 0 0 0 0 1 1
Neighs:    8394.25 ave 19047 max 0 min
Histogram: 2 0 0 0 0 0 0 1 0 1

Total # of neighbors = 33577
Ave neighs/atom = 23.9836
Neighbor list builds = 0
Dangerous builds = 0
LIGGGHTS finished

 timeStepFraction() = 1
[1] cellI = 1020
[1] index = 0
[1] Us = (-1.12225e-09 4.75919e-09 6.24116e-10)
[1] Ur = (1.12225e-09 -4.75919e-09 -0.001)
[1] dprim = 1000
[1] phi = 1
[1] rho = 1
[1] nuf = 1
[1] voidfraction = 0.57242
[1] Rep = 0
[1] betaP = 0.000113795
[1] drag = (6.68674e-05 -0.000283567 -59.5831)
[1] cellI = 1021
[1] index = 1
[1] Us = (-7.85576e-10 3.8827e-09 -6.15768e-12)
[1] Ur = (7.85576e-10 -3.8827e-09 -0.001)
[1] dprim = 1000
[1] phi = 1
[1] rho = 1
[1] nuf = 1
[1] voidfraction = 0.531357
[1] Rep = 0
[1] betaP = 0.000134046
[1] drag = (5.51369e-05 -0.000272513 -70.1865)

Solver level total Eulerian momentum exchange:
  TotalForceImp:  (1.08308 11.9394 181618)
  Warning, these values are based on latest Ksl and Us but prev. iteration U!

DILUPBiCG:  Solving for Ux, Initial residual = 1, Final residual = 0.000298012, No Iterations 1
DILUPBiCG:  Solving for Uy, Initial residual = 1, Final residual = 0.00019333, No Iterations 1
DILUPBiCG:  Solving for Uz, Initial residual = 1, Final residual = 0.000352816, No Iterations 1
DICPCG:  Solving for p, Initial residual = 1, Final residual = 0.0541577, No Iterations 70
DICPCG:  Solving for p, Initial residual = 0.00184663, Final residual = 0.000152257, No Iterations 5
time step continuity errors : sum local = 1.07765e-07, global = -3.77603e-10, cumulative = -3.77603e-10
DICPCG:  Solving for p, Initial residual = 0.000291479, Final residual = 2.03101e-05, No Iterations 69
DICPCG:  Solving for p, Initial residual = 2.03861e-05, Final residual = 1.44856e-06, No Iterations 6
time step continuity errors : sum local = 1.02012e-09, global = 9.63529e-12, cumulative = -3.67968e-10
DICPCG:  Solving for p, Initial residual = 1.58312e-06, Final residual = 8.49696e-07, No Iterations 1
DICPCG:  Solving for p, Initial residual = 8.49696e-07, Final residual = 8.49696e-07, No Iterations 0
time step continuity errors : sum local = 5.98375e-10, global = 1.21863e-11, cumulative = -3.55781e-10
DICPCG:  Solving for p, Initial residual = 8.49427e-07, Final residual = 8.49427e-07, No Iterations 0
DICPCG:  Solving for p, Initial residual = 8.49427e-07, Final residual = 8.49427e-07, No Iterations 0
time step continuity errors : sum local = 5.98185e-10, global = 1.21975e-11, cumulative = -3.43584e-10
ExecutionTime = 0.1 s  ClockTime = 0 s

Time = 2000

Courant Number mean: 0.00102064 max: 0.00225856

 Coupling...
Starting up LIGGGHTS
Executing command: 'run 100    '
Setting up run at Wed Mar  8 10:29:39 2023

Memory usage per processor = 7.0564 Mbytes
    Step    Atoms 
  350100     1400 
  350200     1400 
Loop time of 0.0371948 on 4 procs for 100 steps with 1400 atoms, finish time Wed Mar  8 10:29:39 2023


Pair  time (%) = 0.0144112 (38.7452)
Neigh time (%) = 0 (0)
Comm  time (%) = 0.00106059 (2.85145)
Outpt time (%) = 0.000199496 (0.536353)
Other time (%) = 0.0215235 (57.867)

Nlocal:    350 ave 804 max 0 min
Histogram: 2 0 0 0 0 0 0 1 0 1
Nghost:    570.75 ave 1225 max 0 min
Histogram: 2 0 0 0 0 0 0 0 1 1
Neighs:    8394.25 ave 19047 max 0 min
Histogram: 2 0 0 0 0 0 0 1 0 1

Total # of neighbors = 33577
Ave neighs/atom = 23.9836
Neighbor list builds = 0
Dangerous builds = 0
LIGGGHTS finished

 timeStepFraction() = 1
[1] cellI = 1020
[1] index = 0
[1] Us = (-4.84487e-07 -3.89066e-07 -1.06011e-05)
[1] Ur = (5.19692e-05 -6.31199e-05 -0.00197658)
[1] dprim = 1000
[1] phi = 1
[1] rho = 1
[1] nuf = 1
[1] voidfraction = 0.572424
[1] Rep = 0
[1] betaP = 0.000115506
[1] drag = (3.14303 -3.8174 -119.541)
[1] cellI = 1021
[1] index = 1
[1] Us = (1.7209e-06 -3.27833e-07 -6.04125e-06)
[1] Ur = (-1.02627e-05 -4.68876e-05 -0.00182167)
[1] dprim = 1000
[1] phi = 1
[1] rho = 1
[1] nuf = 1
[1] voidfraction = 0.531359
[1] Rep = 0
[1] betaP = 0.000135484
[1] drag = (-0.728028 -3.32618 -129.228)

Solver level total Eulerian momentum exchange:
  TotalForceImp:  (-2696.31 249.189 416662)
  Warning, these values are based on latest Ksl and Us but prev. iteration U!

DILUPBiCG:  Solving for Ux, Initial residual = 0.262391, Final residual = 8.77835e-05, No Iterations 1
DILUPBiCG:  Solving for Uy, Initial residual = 0.277181, Final residual = 0.000106317, No Iterations 1
DILUPBiCG:  Solving for Uz, Initial residual = 0.14905, Final residual = 6.23033e-05, No Iterations 1
DICPCG:  Solving for p, Initial residual = 0.0266967, Final residual = 0.00254721, No Iterations 69
DICPCG:  Solving for p, Initial residual = 0.00614612, Final residual = 0.00038263, No Iterations 5
time step continuity errors : sum local = 1.11334e-07, global = 5.4396e-10, cumulative = 2.00376e-10
DICPCG:  Solving for p, Initial residual = 0.000676315, Final residual = 5.05857e-05, No Iterations 69
DICPCG:  Solving for p, Initial residual = 5.02369e-05, Final residual = 3.74673e-06, No Iterations 6
time step continuity errors : sum local = 1.09282e-09, global = -1.67852e-11, cumulative = 1.83591e-10
DICPCG:  Solving for p, Initial residual = 4.11694e-06, Final residual = 8.00795e-07, No Iterations 5
DICPCG:  Solving for p, Initial residual = 8.00796e-07, Final residual = 8.00796e-07, No Iterations 0
time step continuity errors : sum local = 2.33562e-10, global = -1.35591e-11, cumulative = 1.70032e-10
DICPCG:  Solving for p, Initial residual = 8.04461e-07, Final residual = 8.04461e-07, No Iterations 0
DICPCG:  Solving for p, Initial residual = 8.04461e-07, Final residual = 8.04461e-07, No Iterations 0
time step continuity errors : sum local = 2.34631e-10, global = -1.35065e-11, cumulative = 1.56526e-10
ExecutionTime = 0.15 s  ClockTime = 0 s

Time = 3000

Courant Number mean: 0.00102493 max: 0.00256363

 Coupling...
Starting up LIGGGHTS
Executing command: 'run 100    '
Setting up run at Wed Mar  8 10:29:39 2023

Memory usage per processor = 7.0564 Mbytes
    Step    Atoms 
  350200     1400 
  350300     1400 
Loop time of 0.0371544 on 4 procs for 100 steps with 1400 atoms, finish time Wed Mar  8 10:29:39 2023


Pair  time (%) = 0.0143603 (38.6503)
Neigh time (%) = 0 (0)
Comm  time (%) = 0.00106121 (2.8562)
Outpt time (%) = 0.00019985 (0.537889)
Other time (%) = 0.0215331 (57.9556)

Nlocal:    350 ave 804 max 0 min
Histogram: 2 0 0 0 0 0 0 1 0 1
Nghost:    570.75 ave 1225 max 0 min
Histogram: 2 0 0 0 0 0 0 0 1 1
Neighs:    8394.25 ave 19047 max 0 min
Histogram: 2 0 0 0 0 0 0 1 0 1

Total # of neighbors = 33577
Ave neighs/atom = 23.9836
Neighbor list builds = 0
Dangerous builds = 0
LIGGGHTS finished

 timeStepFraction() = 1
[1] cellI = 1020
[1] index = 0
[1] Us = (-1.8651e-06 -4.99566e-06 -0.000131759)
[1] Ur = (9.443e-05 -0.000102672 -0.00197493)
[1] dprim = 1000
[1] phi = 1
[1] rho = 1
[1] nuf = 1
[1] voidfraction = 0.572466
[1] Rep = 0
[1] betaP = 0.000115489
[1] drag = (5.71016 -6.20858 -119.424)
[1] cellI = 1021
[1] index = 1
[1] Us = (1.66655e-05 -2.72538e-06 -7.44792e-05)
[1] Ur = (-5.85851e-05 -7.91509e-05 -0.00172333)
[1] dprim = 1000
[1] phi = 1
[1] rho = 1
[1] nuf = 1
[1] voidfraction = 0.531385
[1] Rep = 0
[1] betaP = 0.000135302
[1] drag = (-4.1504 -5.60736 -122.087)

Solver level total Eulerian momentum exchange:
  TotalForceImp:  (-785.767 -1932.91 230820)
  Warning, these values are based on latest Ksl and Us but prev. iteration U!

DILUPBiCG:  Solving for Ux, Initial residual = 0.125631, Final residual = 4.14036e-05, No Iterations 1
DILUPBiCG:  Solving for Uy, Initial residual = 0.129897, Final residual = 4.51037e-05, No Iterations 1
DILUPBiCG:  Solving for Uz, Initial residual = 0.0448433, Final residual = 1.88153e-05, No Iterations 1
DICPCG:  Solving for p, Initial residual = 0.0245131, Final residual = 0.00169114, No Iterations 69
DICPCG:  Solving for p, Initial residual = 0.00265007, Final residual = 0.000213885, No Iterations 6
time step continuity errors : sum local = 3.9517e-08, global = -2.81266e-10, cumulative = -1.24741e-10
DICPCG:  Solving for p, Initial residual = 0.000333642, Final residual = 2.73088e-05, No Iterations 68
DICPCG:  Solving for p, Initial residual = 2.72389e-05, Final residual = 2.14367e-06, No Iterations 7
time step continuity errors : sum local = 3.96323e-10, global = -1.13568e-12, cumulative = -1.25876e-10
DICPCG:  Solving for p, Initial residual = 2.41289e-06, Final residual = 9.84977e-07, No Iterations 3
DICPCG:  Solving for p, Initial residual = 9.84977e-07, Final residual = 9.84977e-07, No Iterations 0
time step continuity errors : sum local = 1.821e-10, global = -3.96019e-12, cumulative = -1.29836e-10
DICPCG:  Solving for p, Initial residual = 9.89516e-07, Final residual = 9.89516e-07, No Iterations 0
DICPCG:  Solving for p, Initial residual = 9.89516e-07, Final residual = 9.89516e-07, No Iterations 0
time step continuity errors : sum local = 1.82939e-10, global = -3.96717e-12, cumulative = -1.33804e-10
ExecutionTime = 0.21 s  ClockTime = 0 s

Time = 4000

Courant Number mean: 0.00102551 max: 0.00258068

 Coupling...
Starting up LIGGGHTS
Executing command: 'run 100    '
Setting up run at Wed Mar  8 10:29:39 2023

Memory usage per processor = 7.0564 Mbytes
    Step    Atoms 
  350300     1400 
  350400     1400 
Loop time of 0.0372963 on 4 procs for 100 steps with 1400 atoms, finish time Wed Mar  8 10:29:39 2023


Pair  time (%) = 0.0144535 (38.7532)
Neigh time (%) = 0 (0)
Comm  time (%) = 0.00105981 (2.84159)
Outpt time (%) = 0.000201203 (0.539473)
Other time (%) = 0.0215818 (57.8657)

Nlocal:    350 ave 804 max 0 min
Histogram: 2 0 0 0 0 0 0 1 0 1
Nghost:    570.75 ave 1225 max 0 min
Histogram: 2 0 0 0 0 0 0 0 1 1
Neighs:    8394.5 ave 19047 max 0 min
Histogram: 2 0 0 0 0 0 0 1 0 1

Total # of neighbors = 33578
Ave neighs/atom = 23.9843
Neighbor list builds = 0
Dangerous builds = 0
LIGGGHTS finished

 timeStepFraction() = 1
[1] cellI = 1020
[1] index = 0
[1] Us = (1.25463e-05 -2.83195e-06 3.14952e-06)
[1] Ur = (0.000113995 -0.000130183 -0.00220609)
[1] dprim = 1000
[1] phi = 1
[1] rho = 1
[1] nuf = 1
[1] voidfraction = 0.572477
[1] Rep = 0
[1] betaP = 0.000115892
[1] drag = (6.91729 -7.89959 -133.867)
[1] cellI = 1021
[1] index = 1
[1] Us = (-3.80506e-08 1.13439e-05 2.31749e-06)
[1] Ur = (-6.01931e-05 -0.000131222 -0.00181011)
[1] dprim = 1000
[1] phi = 1
[1] rho = 1
[1] nuf = 1
[1] voidfraction = 0.53139
[1] Rep = 0
[1] betaP = 0.000135456
[1] drag = (-4.26919 -9.30688 -128.382)

Solver level total Eulerian momentum exchange:
  TotalForceImp:  (1210.89 -320.979 356178)
  Warning, these values are based on latest Ksl and Us but prev. iteration U!

DILUPBiCG:  Solving for Ux, Initial residual = 0.0798529, Final residual = 2.86254e-05, No Iterations 1
DILUPBiCG:  Solving for Uy, Initial residual = 0.0793565, Final residual = 3.00179e-05, No Iterations 1
DILUPBiCG:  Solving for Uz, Initial residual = 0.0355119, Final residual = 1.13747e-05, No Iterations 1
DICPCG:  Solving for p, Initial residual = 0.0331615, Final residual = 0.00227485, No Iterations 70
DICPCG:  Solving for p, Initial residual = 0.00166101, Final residual = 0.000117861, No Iterations 6
time step continuity errors : sum local = 2.9959e-08, global = -4.701e-10, cumulative = -6.03904e-10
DICPCG:  Solving for p, Initial residual = 0.000183217, Final residual = 1.68876e-05, No Iterations 69
DICPCG:  Solving for p, Initial residual = 1.69092e-05, Final residual = 1.42021e-06, No Iterations 6
time step continuity errors : sum local = 3.60164e-10, global = -4.35068e-12, cumulative = -6.08254e-10
DICPCG:  Solving for p, Initial residual = 1.58523e-06, Final residual = 9.24543e-07, No Iterations 1
DICPCG:  Solving for p, Initial residual = 9.24543e-07, Final residual = 9.24543e-07, No Iterations 0
time step continuity errors : sum local = 2.34461e-10, global = -9.46746e-13, cumulative = -6.09201e-10
DICPCG:  Solving for p, Initial residual = 9.24318e-07, Final residual = 9.24318e-07, No Iterations 0
DICPCG:  Solving for p, Initial residual = 9.24318e-07, Final residual = 9.24318e-07, No Iterations 0
time step continuity errors : sum local = 2.34404e-10, global = -9.28754e-13, cumulative = -6.1013e-10
ExecutionTime = 0.27 s  ClockTime = 0 s

Time = 5000

Courant Number mean: 0.00102844 max: 0.00282442

 Coupling...
Starting up LIGGGHTS
Executing command: 'run 100    '
Setting up run at Wed Mar  8 10:29:39 2023

Memory usage per processor = 7.0564 Mbytes
    Step    Atoms 
  350400     1400 
  350500     1400 
Loop time of 0.0374365 on 4 procs for 100 steps with 1400 atoms, finish time Wed Mar  8 10:29:39 2023


Pair  time (%) = 0.0144632 (38.6338)
Neigh time (%) = 0 (0)
Comm  time (%) = 0.00106458 (2.84368)
Outpt time (%) = 0.000201978 (0.539522)
Other time (%) = 0.0217068 (57.983)

Nlocal:    350 ave 804 max 0 min
Histogram: 2 0 0 0 0 0 0 1 0 1
Nghost:    570.75 ave 1225 max 0 min
Histogram: 2 0 0 0 0 0 0 0 1 1
Neighs:    8395.5 ave 19050 max 0 min
Histogram: 2 0 0 0 0 0 0 1 0 1

Total # of neighbors = 33582
Ave neighs/atom = 23.9871
Neighbor list builds = 0
Dangerous builds = 0
LIGGGHTS finished

 timeStepFraction() = 1
[1] cellI = 1020
[1] index = 0
[1] Us = (-6.56018e-06 8.1889e-08 3.01411e-06)
[1] Ur = (0.000173005 -0.000164878 -0.00229435)
[1] dprim = 1000
[1] phi = 1
[1] rho = 1
[1] nuf = 1
[1] voidfraction = 0.572478
[1] Rep = 0
[1] betaP = 0.000116056
[1] drag = (10.5129 -10.0191 -139.42)
[1] cellI = 1021
[1] index = 1
[1] Us = (3.09946e-06 -1.18535e-06 2.40429e-06)
[1] Ur = (-8.17295e-05 -0.000135129 -0.00183482)
[1] dprim = 1000
[1] phi = 1
[1] rho = 1
[1] nuf = 1
[1] voidfraction = 0.53139
[1] Rep = 0
[1] betaP = 0.000135501
[1] drag = (-5.79856 -9.58715 -130.178)

Solver level total Eulerian momentum exchange:
  TotalForceImp:  (-1187.65 -1811.13 466330)
  Warning, these values are based on latest Ksl and Us but prev. iteration U!

DILUPBiCG:  Solving for Ux, Initial residual = 0.0674649, Final residual = 2.32964e-05, No Iterations 1
DILUPBiCG:  Solving for Uy, Initial residual = 0.0704227, Final residual = 2.71841e-05, No Iterations 1
DILUPBiCG:  Solving for Uz, Initial residual = 0.0400213, Final residual = 1.29343e-05, No Iterations 1
DICPCG:  Solving for p, Initial residual = 0.0223201, Final residual = 0.00146219, No Iterations 65
DICPCG:  Solving for p, Initial residual = 0.00122385, Final residual = 0.000106401, No Iterations 10
time step continuity errors : sum local = 3.25837e-08, global = -6.86111e-10, cumulative = -1.29624e-09
DICPCG:  Solving for p, Initial residual = 0.000159917, Final residual = 1.43786e-05, No Iterations 37
DICPCG:  Solving for p, Initial residual = 1.43777e-05, Final residual = 1.31258e-06, No Iterations 53
time step continuity errors : sum local = 4.01712e-10, global = -3.12009e-12, cumulative = -1.29936e-09
DICPCG:  Solving for p, Initial residual = 1.38281e-06, Final residual = 9.69748e-07, No Iterations 1
DICPCG:  Solving for p, Initial residual = 9.69748e-07, Final residual = 9.69748e-07, No Iterations 0
time step continuity errors : sum local = 2.96613e-10, global = -1.97606e-12, cumulative = -1.30134e-09
DICPCG:  Solving for p, Initial residual = 9.69679e-07, Final residual = 9.69679e-07, No Iterations 0
DICPCG:  Solving for p, Initial residual = 9.69679e-07, Final residual = 9.69679e-07, No Iterations 0
time step continuity errors : sum local = 2.96591e-10, global = -1.97676e-12, cumulative = -1.30331e-09
ExecutionTime = 0.32 s  ClockTime = 0 s

Time = 6000

Courant Number mean: 0.00103246 max: 0.0031489

 Coupling...
Starting up LIGGGHTS
Executing command: 'run 100    '
Setting up run at Wed Mar  8 10:29:39 2023

Memory usage per processor = 7.0564 Mbytes
    Step    Atoms 
  350500     1400 
  350600     1400 
Loop time of 0.0373218 on 4 procs for 100 steps with 1400 atoms, finish time Wed Mar  8 10:29:39 2023


Pair  time (%) = 0.0144489 (38.7145)
Neigh time (%) = 0 (0)
Comm  time (%) = 0.00106513 (2.85391)
Outpt time (%) = 0.000199655 (0.534956)
Other time (%) = 0.0216081 (57.8967)

Nlocal:    350 ave 804 max 0 min
Histogram: 2 0 0 0 0 0 0 1 0 1
Nghost:    570.75 ave 1225 max 0 min
Histogram: 2 0 0 0 0 0 0 0 1 1
Neighs:    8395.25 ave 19049 max 0 min
Histogram: 2 0 0 0 0 0 0 1 0 1

Total # of neighbors = 33581
Ave neighs/atom = 23.9864
Neighbor list builds = 0
Dangerous builds = 0
LIGGGHTS finished

 timeStepFraction() = 1
[1] cellI = 1020
[1] index = 0
[1] Us = (1.30812e-05 6.22684e-06 0.00012146)
[1] Ur = (0.000183553 -0.000191564 -0.00249052)
[1] dprim = 1000
[1] phi = 1
[1] rho = 1
[1] nuf = 1
[1] voidfraction = 0.572457
[1] Rep = 0
[1] betaP = 0.000116412
[1] drag = (11.1881 -11.6764 -151.804)
[1] cellI = 1021
[1] index = 1
[1] Us = (-8.02619e-06 -7.90776e-06 6.6191e-05)
[1] Ur = (-8.17807e-05 -0.000155507 -0.00194159)
[1] dprim = 1000
[1] phi = 1
[1] rho = 1
[1] nuf = 1
[1] voidfraction = 0.531378
[1] Rep = 0
[1] betaP = 0.000135696
[1] drag = (-5.81056 -11.0489 -137.951)

Solver level total Eulerian momentum exchange:
  TotalForceImp:  (-1274.11 919.23 520506)
  Warning, these values are based on latest Ksl and Us but prev. iteration U!

DILUPBiCG:  Solving for Ux, Initial residual = 0.0608122, Final residual = 2.229e-05, No Iterations 1
DILUPBiCG:  Solving for Uy, Initial residual = 0.062652, Final residual = 2.50539e-05, No Iterations 1
DILUPBiCG:  Solving for Uz, Initial residual = 0.0371701, Final residual = 1.26683e-05, No Iterations 1
DICPCG:  Solving for p, Initial residual = 0.0123304, Final residual = 0.00066267, No Iterations 70
DICPCG:  Solving for p, Initial residual = 0.000600236, Final residual = 5.23251e-05, No Iterations 5
time step continuity errors : sum local = 1.78131e-08, global = -3.08353e-12, cumulative = -1.3064e-09
DICPCG:  Solving for p, Initial residual = 7.16891e-05, Final residual = 6.88955e-06, No Iterations 69
DICPCG:  Solving for p, Initial residual = 6.89227e-06, Final residual = 9.12191e-07, No Iterations 5
time step continuity errors : sum local = 3.103e-10, global = 1.4431e-12, cumulative = -1.30495e-09
DICPCG:  Solving for p, Initial residual = 9.72029e-07, Final residual = 9.72029e-07, No Iterations 0
DICPCG:  Solving for p, Initial residual = 9.72029e-07, Final residual = 9.72029e-07, No Iterations 0
time step continuity errors : sum local = 3.30654e-10, global = 1.63846e-12, cumulative = -1.30332e-09
DICPCG:  Solving for p, Initial residual = 9.72424e-07, Final residual = 9.72424e-07, No Iterations 0
DICPCG:  Solving for p, Initial residual = 9.72424e-07, Final residual = 9.72424e-07, No Iterations 0
time step continuity errors : sum local = 3.30788e-10, global = 1.63981e-12, cumulative = -1.30168e-09
ExecutionTime = 0.38 s  ClockTime = 0 s

Time = 7000

Courant Number mean: 0.00103687 max: 0.00355236

 Coupling...
Starting up LIGGGHTS
Executing command: 'run 100    '
Setting up run at Wed Mar  8 10:29:39 2023

Memory usage per processor = 7.0564 Mbytes
    Step    Atoms 
  350600     1400 
  350700     1400 
Loop time of 0.0370833 on 4 procs for 100 steps with 1400 atoms, finish time Wed Mar  8 10:29:39 2023


Pair  time (%) = 0.0143924 (38.8108)
Neigh time (%) = 0 (0)
Comm  time (%) = 0.00106028 (2.85919)
Outpt time (%) = 0.000199604 (0.538257)
Other time (%) = 0.0214311 (57.7917)

Nlocal:    350 ave 804 max 0 min
Histogram: 2 0 0 0 0 0 0 1 0 1
Nghost:    570.75 ave 1225 max 0 min
Histogram: 2 0 0 0 0 0 0 0 1 1
Neighs:    8394.5 ave 19047 max 0 min
Histogram: 2 0 0 0 0 0 0 1 0 1

Total # of neighbors = 33578
Ave neighs/atom = 23.9843
Neighbor list builds = 0
Dangerous builds = 0
LIGGGHTS finished

 timeStepFraction() = 1
[1] cellI = 1020
[1] index = 0
[1] Us = (-1.92137e-07 -4.57867e-07 4.29235e-05)
[1] Ur = (0.000226578 -0.000212165 -0.0024919)
[1] dprim = 1000
[1] phi = 1
[1] rho = 1
[1] nuf = 1
[1] voidfraction = 0.572422
[1] Rep = 0
[1] betaP = 0.000116439
[1] drag = (13.8139 -12.9351 -151.924)
[1] cellI = 1021
[1] index = 1
[1] Us = (-6.78878e-06 1.9516e-06 2.30468e-05)
[1] Ur = (-9.60072e-05 -0.000185579 -0.00193891)
[1] dprim = 1000
[1] phi = 1
[1] rho = 1
[1] nuf = 1
[1] voidfraction = 0.531359
[1] Rep = 0
[1] betaP = 0.000135708
[1] drag = (-6.82194 -13.1866 -137.772)

Solver level total Eulerian momentum exchange:
  TotalForceImp:  (-13870.3 6317.49 358969)
  Warning, these values are based on latest Ksl and Us but prev. iteration U!

DILUPBiCG:  Solving for Ux, Initial residual = 0.0854124, Final residual = 2.13835e-05, No Iterations 1
DILUPBiCG:  Solving for Uy, Initial residual = 0.0804897, Final residual = 2.35312e-05, No Iterations 1
DILUPBiCG:  Solving for Uz, Initial residual = 0.0271516, Final residual = 8.97453e-06, No Iterations 1
DICPCG:  Solving for p, Initial residual = 0.0170794, Final residual = 0.00155032, No Iterations 68
DICPCG:  Solving for p, Initial residual = 0.00172243, Final residual = 0.000168529, No Iterations 8
time step continuity errors : sum local = 5.18193e-08, global = 1.2117e-09, cumulative = -8.99784e-11
DICPCG:  Solving for p, Initial residual = 0.000192987, Final residual = 1.64902e-05, No Iterations 33
DICPCG:  Solving for p, Initial residual = 1.64937e-05, Final residual = 1.15616e-06, No Iterations 68
time step continuity errors : sum local = 3.55053e-10, global = -4.35662e-12, cumulative = -9.4335e-11
DICPCG:  Solving for p, Initial residual = 1.30164e-06, Final residual = 8.39494e-07, No Iterations 1
DICPCG:  Solving for p, Initial residual = 8.39494e-07, Final residual = 8.39494e-07, No Iterations 0
time step continuity errors : sum local = 2.57872e-10, global = -9.73837e-12, cumulative = -1.04073e-10
DICPCG:  Solving for p, Initial residual = 8.40132e-07, Final residual = 8.40132e-07, No Iterations 0
DICPCG:  Solving for p, Initial residual = 8.40132e-07, Final residual = 8.40132e-07, No Iterations 0
time step continuity errors : sum local = 2.58068e-10, global = -9.76693e-12, cumulative = -1.1384e-10
ExecutionTime = 0.43 s  ClockTime = 0 s

Time = 8000

Courant Number mean: 0.00104003 max: 0.00385883

 Coupling...
Starting up LIGGGHTS
Executing command: 'run 100    '
Setting up run at Wed Mar  8 10:29:39 2023

Memory usage per processor = 7.0564 Mbytes
    Step    Atoms 
  350700     1400 
  350800     1400 
Loop time of 0.037175 on 4 procs for 100 steps with 1400 atoms, finish time Wed Mar  8 10:29:39 2023


Pair  time (%) = 0.0143649 (38.6413)
Neigh time (%) = 0 (0)
Comm  time (%) = 0.00105972 (2.85062)
Outpt time (%) = 0.00019981 (0.537485)
Other time (%) = 0.0215506 (57.9705)

Nlocal:    350 ave 804 max 0 min
Histogram: 2 0 0 0 0 0 0 1 0 1
Nghost:    570.75 ave 1225 max 0 min
Histogram: 2 0 0 0 0 0 0 0 1 1
Neighs:    8394.25 ave 19047 max 0 min
Histogram: 2 0 0 0 0 0 0 1 0 1

Total # of neighbors = 33577
Ave neighs/atom = 23.9836
Neighbor list builds = 0
Dangerous builds = 0
LIGGGHTS finished

 timeStepFraction() = 1
[1] cellI = 1020
[1] index = 0
[1] Us = (-1.97323e-06 2.51164e-06 -5.78566e-05)
[1] Ur = (0.000247149 -0.000245581 -0.00246671)
[1] dprim = 1000
[1] phi = 1
[1] rho = 1
[1] nuf = 1
[1] voidfraction = 0.572429
[1] Rep = 0
[1] betaP = 0.000116401
[1] drag = (15.0631 -14.9675 -150.339)
[1] cellI = 1021
[1] index = 1
[1] Us = (5.44894e-06 1.6682e-06 -3.08766e-05)
[1] Ur = (-0.000124907 -0.000211147 -0.00194524)
[1] dprim = 1000
[1] phi = 1
[1] rho = 1
[1] nuf = 1
[1] voidfraction = 0.531362
[1] Rep = 0
[1] betaP = 0.000135724
[1] drag = (-8.87656 -15.0052 -138.239)

Solver level total Eulerian momentum exchange:
  TotalForceImp:  (-13261.2 -1157.81 222850)
  Warning, these values are based on latest Ksl and Us but prev. iteration U!

DILUPBiCG:  Solving for Ux, Initial residual = 0.0712043, Final residual = 2.37845e-05, No Iterations 1
DILUPBiCG:  Solving for Uy, Initial residual = 0.0680564, Final residual = 2.4352e-05, No Iterations 1
DILUPBiCG:  Solving for Uz, Initial residual = 0.0385818, Final residual = 1.51913e-05, No Iterations 1
DICPCG:  Solving for p, Initial residual = 0.0278361, Final residual = 0.00254698, No Iterations 65
DICPCG:  Solving for p, Initial residual = 0.00386226, Final residual = 0.000352537, No Iterations 8
time step continuity errors : sum local = 7.06482e-08, global = 2.17418e-09, cumulative = 2.06034e-09
DICPCG:  Solving for p, Initial residual = 0.000450817, Final residual = 4.30474e-05, No Iterations 48
DICPCG:  Solving for p, Initial residual = 4.30589e-05, Final residual = 3.91643e-06, No Iterations 60
time step continuity errors : sum local = 7.82599e-10, global = -7.3693e-12, cumulative = 2.05297e-09
DICPCG:  Solving for p, Initial residual = 4.16139e-06, Final residual = 7.5541e-07, No Iterations 5
DICPCG:  Solving for p, Initial residual = 7.55412e-07, Final residual = 7.55412e-07, No Iterations 0
time step continuity errors : sum local = 1.51256e-10, global = -5.83118e-12, cumulative = 2.04714e-09
DICPCG:  Solving for p, Initial residual = 7.55571e-07, Final residual = 7.55571e-07, No Iterations 0
DICPCG:  Solving for p, Initial residual = 7.55571e-07, Final residual = 7.55571e-07, No Iterations 0
time step continuity errors : sum local = 1.51288e-10, global = -5.84057e-12, cumulative = 2.0413e-09
ExecutionTime = 0.49 s  ClockTime = 1 s

Time = 9000

Courant Number mean: 0.0010383 max: 0.00385073

 Coupling...
Starting up LIGGGHTS
Executing command: 'run 100    '
Setting up run at Wed Mar  8 10:29:40 2023

Memory usage per processor = 7.0564 Mbytes
    Step    Atoms 
  350800     1400 
  350900     1400 
Loop time of 0.0371623 on 4 procs for 100 steps with 1400 atoms, finish time Wed Mar  8 10:29:40 2023


Pair  time (%) = 0.0143999 (38.7487)
Neigh time (%) = 0 (0)
Comm  time (%) = 0.00106027 (2.85307)
Outpt time (%) = 0.000200053 (0.538323)
Other time (%) = 0.0215021 (57.8599)

Nlocal:    350 ave 804 max 0 min
Histogram: 2 0 0 0 0 0 0 1 0 1
Nghost:    570.75 ave 1225 max 0 min
Histogram: 2 0 0 0 0 0 0 0 1 1
Neighs:    8394.25 ave 19047 max 0 min
Histogram: 2 0 0 0 0 0 0 1 0 1

Total # of neighbors = 33577
Ave neighs/atom = 23.9836
Neighbor list builds = 0
Dangerous builds = 0
LIGGGHTS finished

 timeStepFraction() = 1
[1] cellI = 1020
[1] index = 0
[1] Us = (-7.24788e-06 -7.38805e-06 -5.18984e-05)
[1] Ur = (0.000271507 -0.000226723 -0.00250949)
[1] dprim = 1000
[1] phi = 1
[1] rho = 1
[1] nuf = 1
[1] voidfraction = 0.572447
[1] Rep = 0
[1] betaP = 0.000116468
[1] drag = (16.5571 -13.8261 -153.034)
[1] cellI = 1021
[1] index = 1
[1] Us = (-2.48554e-06 -1.677e-06 -2.88839e-05)
[1] Ur = (-0.000116625 -0.000228236 -0.00197285)
[1] dprim = 1000
[1] phi = 1
[1] rho = 1
[1] nuf = 1
[1] voidfraction = 0.531373
[1] Rep = 0
[1] betaP = 0.000135769
[1] drag = (-8.29072 -16.225 -140.247)

Solver level total Eulerian momentum exchange:
  TotalForceImp:  (-17006.3 -2449.67 223372)
  Warning, these values are based on latest Ksl and Us but prev. iteration U!

DILUPBiCG:  Solving for Ux, Initial residual = 0.0739528, Final residual = 1.94533e-05, No Iterations 1
DILUPBiCG:  Solving for Uy, Initial residual = 0.0739101, Final residual = 1.91961e-05, No Iterations 1
DILUPBiCG:  Solving for Uz, Initial residual = 0.0166172, Final residual = 3.89016e-06, No Iterations 1
DICPCG:  Solving for p, Initial residual = 0.0429521, Final residual = 0.00422493, No Iterations 49
DICPCG:  Solving for p, Initial residual = 0.0042925, Final residual = 0.000288616, No Iterations 68
time step continuity errors : sum local = 5.64619e-08, global = -3.93343e-10, cumulative = 1.64795e-09
DICPCG:  Solving for p, Initial residual = 0.000392177, Final residual = 3.48385e-05, No Iterations 33
DICPCG:  Solving for p, Initial residual = 3.48466e-05, Final residual = 3.19238e-06, No Iterations 55
time step continuity errors : sum local = 5.20634e-10, global = -1.10431e-10, cumulative = 1.53752e-09
DICPCG:  Solving for p, Initial residual = 3.38512e-06, Final residual = 7.77318e-07, No Iterations 24
DICPCG:  Solving for p, Initial residual = 7.77307e-07, Final residual = 7.77307e-07, No Iterations 0
time step continuity errors : sum local = 1.26893e-10, global = -8.09472e-12, cumulative = 1.52943e-09
DICPCG:  Solving for p, Initial residual = 7.77839e-07, Final residual = 7.77839e-07, No Iterations 0
DICPCG:  Solving for p, Initial residual = 7.77839e-07, Final residual = 7.77839e-07, No Iterations 0
time step continuity errors : sum local = 1.26979e-10, global = -7.54384e-12, cumulative = 1.52188e-09
ExecutionTime = 0.55 s  ClockTime = 1 s

Time = 10000

Courant Number mean: 0.00103694 max: 0.00383527

 Coupling...
Starting up LIGGGHTS
Executing command: 'run 100    '
Setting up run at Wed Mar  8 10:29:40 2023

Memory usage per processor = 7.0564 Mbytes
    Step    Atoms 
  350900     1400 
  351000     1400 
Loop time of 0.0372718 on 4 procs for 100 steps with 1400 atoms, finish time Wed Mar  8 10:29:40 2023


Pair  time (%) = 0.0144304 (38.7165)
Neigh time (%) = 0 (0)
Comm  time (%) = 0.00106782 (2.86496)
Outpt time (%) = 0.000200822 (0.538804)
Other time (%) = 0.0215728 (57.8797)

Nlocal:    350 ave 804 max 0 min
Histogram: 2 0 0 0 0 0 0 1 0 1
Nghost:    570.75 ave 1225 max 0 min
Histogram: 2 0 0 0 0 0 0 0 1 1
Neighs:    8394.75 ave 19048 max 0 min
Histogram: 2 0 0 0 0 0 0 1 0 1

Total # of neighbors = 33579
Ave neighs/atom = 23.985
Neighbor list builds = 0
Dangerous builds = 0
Executing command: 'write_restart ../DEM/liggghts.restartCFDEM'
System init for write_restart ...
LIGGGHTS finished

 timeStepFraction() = 1
[1] cellI = 1020
[1] index = 0
[1] Us = (-4.39463e-06 3.87091e-06 -4.06723e-05)
[1] Ur = (0.000272316 -0.000220741 -0.00249886)
[1] dprim = 1000
[1] phi = 1
[1] rho = 1
[1] nuf = 1
[1] voidfraction = 0.572464
[1] Rep = 0
[1] betaP = 0.000116441
[1] drag = (16.6027 -13.4582 -152.352)
[1] cellI = 1021
[1] index = 1
[1] Us = (6.25215e-06 7.78177e-06 -2.15657e-05)
[1] Ur = (-0.000127404 -0.00025596 -0.00195896)
[1] dprim = 1000
[1] phi = 1
[1] rho = 1
[1] nuf = 1
[1] voidfraction = 0.531382
[1] Rep = 0
[1] betaP = 0.000135747
[1] drag = (-9.05552 -18.1929 -139.237)

Solver level total Eulerian momentum exchange:
  TotalForceImp:  (-2762.68 8406.9 331376)
  Warning, these values are based on latest Ksl and Us but prev. iteration U!

DILUPBiCG:  Solving for Ux, Initial residual = 0.0700244, Final residual = 2.46691e-05, No Iterations 1
DILUPBiCG:  Solving for Uy, Initial residual = 0.0810884, Final residual = 2.54503e-05, No Iterations 1
DILUPBiCG:  Solving for Uz, Initial residual = 0.0297573, Final residual = 9.71254e-06, No Iterations 1
DICPCG:  Solving for p, Initial residual = 0.0574839, Final residual = 0.00568743, No Iterations 69
DICPCG:  Solving for p, Initial residual = 0.00374482, Final residual = 0.000324431, No Iterations 7
time step continuity errors : sum local = 8.00109e-08, global = -2.00561e-10, cumulative = 1.32132e-09
DICPCG:  Solving for p, Initial residual = 0.000384014, Final residual = 3.78027e-05, No Iterations 34
DICPCG:  Solving for p, Initial residual = 3.78027e-05, Final residual = 2.75046e-06, No Iterations 65
time step continuity errors : sum local = 6.7663e-10, global = -2.67726e-12, cumulative = 1.31865e-09
DICPCG:  Solving for p, Initial residual = 3.05966e-06, Final residual = 7.77229e-07, No Iterations 4
DICPCG:  Solving for p, Initial residual = 7.7723e-07, Final residual = 7.7723e-07, No Iterations 0
time step continuity errors : sum local = 1.91013e-10, global = 4.51301e-12, cumulative = 1.32316e-09
DICPCG:  Solving for p, Initial residual = 7.79581e-07, Final residual = 7.79581e-07, No Iterations 0
DICPCG:  Solving for p, Initial residual = 7.79581e-07, Final residual = 7.79581e-07, No Iterations 0
time step continuity errors : sum local = 1.9159e-10, global = 4.52633e-12, cumulative = 1.32769e-09
ExecutionTime = 0.62 s  ClockTime = 1 s

Time = 11000

Courant Number mean: 0.00103859 max: 0.0039684

 Coupling...
Starting up LIGGGHTS
Executing command: 'run 100    '
Setting up run at Wed Mar  8 10:29:40 2023

Memory usage per processor = 7.0564 Mbytes
    Step    Atoms 
  351000     1400 
  351100     1400 
Loop time of 0.0372292 on 4 procs for 100 steps with 1400 atoms, finish time Wed Mar  8 10:29:40 2023


Pair  time (%) = 0.0144122 (38.7122)
Neigh time (%) = 0 (0)
Comm  time (%) = 0.00105859 (2.84345)
Outpt time (%) = 0.000200089 (0.537453)
Other time (%) = 0.0215583 (57.9069)

Nlocal:    350 ave 804 max 0 min
Histogram: 2 0 0 0 0 0 0 1 0 1
Nghost:    570.75 ave 1225 max 0 min
Histogram: 2 0 0 0 0 0 0 0 1 1
Neighs:    8395.25 ave 19049 max 0 min
Histogram: 2 0 0 0 0 0 0 1 0 1

Total # of neighbors = 33581
Ave neighs/atom = 23.9864
Neighbor list builds = 0
Dangerous builds = 0
Executing command: 'write_restart ../DEM/liggghts.restartCFDEM'
System init for write_restart ...
LIGGGHTS finished

 timeStepFraction() = 1
[1] cellI = 1020
[1] index = 0
[1] Us = (6.47653e-06 1.64915e-06 4.56533e-05)
[1] Ur = (0.000267721 -0.000208144 -0.0026265)
[1] dprim = 1000
[1] phi = 1
[1] rho = 1
[1] nuf = 1
[1] voidfraction = 0.572463
[1] Rep = 0
[1] betaP = 0.00011666
[1] drag = (16.3532 -12.7141 -160.435)
[1] cellI = 1021
[1] index = 1
[1] Us = (-1.73005e-06 -1.90215e-06 2.40834e-05)
[1] Ur = (-0.000111752 -0.000252003 -0.00203222)
[1] dprim = 1000
[1] phi = 1
[1] rho = 1
[1] nuf = 1
[1] voidfraction = 0.531382
[1] Rep = 0
[1] betaP = 0.000135872
[1] drag = (-7.95028 -17.9281 -144.577)

Solver level total Eulerian momentum exchange:
  TotalForceImp:  (-725.069 747.206 429661)
  Warning, these values are based on latest Ksl and Us but prev. iteration U!

DILUPBiCG:  Solving for Ux, Initial residual = 0.0431345, Final residual = 1.67507e-05, No Iterations 1
DILUPBiCG:  Solving for Uy, Initial residual = 0.0442742, Final residual = 1.73024e-05, No Iterations 1
DILUPBiCG:  Solving for Uz, Initial residual = 0.0271183, Final residual = 7.29548e-06, No Iterations 1
DICPCG:  Solving for p, Initial residual = 0.0218062, Final residual = 0.0019235, No Iterations 69
DICPCG:  Solving for p, Initial residual = 0.00160326, Final residual = 0.000151505, No Iterations 6
time step continuity errors : sum local = 4.52307e-08, global = -1.6997e-09, cumulative = -3.72013e-10
DICPCG:  Solving for p, Initial residual = 0.000183542, Final residual = 1.61802e-05, No Iterations 38
DICPCG:  Solving for p, Initial residual = 1.61806e-05, Final residual = 1.46988e-06, No Iterations 67
time step continuity errors : sum local = 4.38357e-10, global = -2.88664e-12, cumulative = -3.749e-10
DICPCG:  Solving for p, Initial residual = 1.56561e-06, Final residual = 9.94577e-07, No Iterations 1
DICPCG:  Solving for p, Initial residual = 9.94577e-07, Final residual = 9.94577e-07, No Iterations 0
time step continuity errors : sum local = 2.96418e-10, global = 4.88405e-12, cumulative = -3.70015e-10
DICPCG:  Solving for p, Initial residual = 9.94629e-07, Final residual = 9.94629e-07, No Iterations 0
DICPCG:  Solving for p, Initial residual = 9.94629e-07, Final residual = 9.94629e-07, No Iterations 0
time step continuity errors : sum local = 2.96434e-10, global = 4.92326e-12, cumulative = -3.65092e-10
ExecutionTime = 0.68 s  ClockTime = 1 s

Time = 12000

Courant Number mean: 0.00104152 max: 0.00420417

 Coupling...
Starting up LIGGGHTS
Executing command: 'run 100    '
Setting up run at Wed Mar  8 10:29:40 2023

Memory usage per processor = 7.0564 Mbytes
    Step    Atoms 
  351100     1400 
  351200     1400 
Loop time of 0.0372974 on 4 procs for 100 steps with 1400 atoms, finish time Wed Mar  8 10:29:40 2023


Pair  time (%) = 0.0144556 (38.7576)
Neigh time (%) = 0 (0)
Comm  time (%) = 0.00106898 (2.86611)
Outpt time (%) = 0.000200193 (0.536749)
Other time (%) = 0.0215726 (57.8396)

Nlocal:    350 ave 804 max 0 min
Histogram: 2 0 0 0 0 0 0 1 0 1
Nghost:    570.75 ave 1225 max 0 min
Histogram: 2 0 0 0 0 0 0 0 1 1
Neighs:    8395 ave 19048 max 0 min
Histogram: 2 0 0 0 0 0 0 1 0 1

Total # of neighbors = 33580
Ave neighs/atom = 23.9857
Neighbor list builds = 0
Dangerous builds = 0
Executing command: 'write_restart ../DEM/liggghts.restartCFDEM'
System init for write_restart ...
LIGGGHTS finished

 timeStepFraction() = 1
[1] cellI = 1020
[1] index = 0
[1] Us = (-8.27559e-06 2.08719e-06 5.06837e-05)
[1] Ur = (0.000294275 -0.0002295 -0.00270479)
[1] dprim = 1000
[1] phi = 1
[1] rho = 1
[1] nuf = 1
[1] voidfraction = 0.572446
[1] Rep = 0
[1] betaP = 0.000116812
[1] drag = (17.9985 -14.0368 -165.431)
[1] cellI = 1021
[1] index = 1
[1] Us = (-1.61276e-05 -4.12318e-06 2.79257e-05)
[1] Ur = (-0.000110362 -0.000256172 -0.00207737)
[1] dprim = 1000
[1] phi = 1
[1] rho = 1
[1] nuf = 1
[1] voidfraction = 0.531372
[1] Rep = 0
[1] betaP = 0.000135956
[1] drag = (-7.85626 -18.2359 -147.88)

Solver level total Eulerian momentum exchange:
  TotalForceImp:  (-9013.02 -3082.48 439782)
  Warning, these values are based on latest Ksl and Us but prev. iteration U!

DILUPBiCG:  Solving for Ux, Initial residual = 0.0469139, Final residual = 1.51047e-05, No Iterations 1
DILUPBiCG:  Solving for Uy, Initial residual = 0.0395168, Final residual = 1.59186e-05, No Iterations 1
DILUPBiCG:  Solving for Uz, Initial residual = 0.0210518, Final residual = 6.45806e-06, No Iterations 1
DICPCG:  Solving for p, Initial residual = 0.012112, Final residual = 0.00118623, No Iterations 4
DICPCG:  Solving for p, Initial residual = 0.00117901, Final residual = 0.000107079, No Iterations 69
time step continuity errors : sum local = 3.23069e-08, global = -2.22064e-10, cumulative = -5.87156e-10
DICPCG:  Solving for p, Initial residual = 0.000111995, Final residual = 9.82961e-06, No Iterations 6
DICPCG:  Solving for p, Initial residual = 9.83019e-06, Final residual = 8.67912e-07, No Iterations 32
time step continuity errors : sum local = 2.6371e-10, global = -1.87235e-11, cumulative = -6.05879e-10
DICPCG:  Solving for p, Initial residual = 9.95292e-07, Final residual = 9.95292e-07, No Iterations 0
DICPCG:  Solving for p, Initial residual = 9.95292e-07, Final residual = 9.95292e-07, No Iterations 0
time step continuity errors : sum local = 3.02415e-10, global = -1.72069e-11, cumulative = -6.23086e-10
DICPCG:  Solving for p, Initial residual = 9.96239e-07, Final residual = 9.96239e-07, No Iterations 0
DICPCG:  Solving for p, Initial residual = 9.96239e-07, Final residual = 9.96239e-07, No Iterations 0
time step continuity errors : sum local = 3.02702e-10, global = -1.71985e-11, cumulative = -6.40285e-10
ExecutionTime = 0.74 s  ClockTime = 1 s

Time = 13000

Courant Number mean: 0.00104407 max: 0.00443053

 Coupling...
Starting up LIGGGHTS
Executing command: 'run 100    '
Setting up run at Wed Mar  8 10:29:40 2023

Memory usage per processor = 7.0564 Mbytes
    Step    Atoms 
  351200     1400 
  351300     1400 
Loop time of 0.0373467 on 4 procs for 100 steps with 1400 atoms, finish time Wed Mar  8 10:29:40 2023


Pair  time (%) = 0.0144514 (38.6953)
Neigh time (%) = 0 (0)
Comm  time (%) = 0.00105977 (2.83767)
Outpt time (%) = 0.000200717 (0.537444)
Other time (%) = 0.0216348 (57.9296)

Nlocal:    350 ave 804 max 0 min
Histogram: 2 0 0 0 0 0 0 1 0 1
Nghost:    570.75 ave 1225 max 0 min
Histogram: 2 0 0 0 0 0 0 0 1 1
Neighs:    8394.5 ave 19048 max 0 min
Histogram: 2 0 0 0 0 0 0 1 0 1

Total # of neighbors = 33578
Ave neighs/atom = 23.9843
Neighbor list builds = 0
Dangerous builds = 0
Executing command: 'write_restart ../DEM/liggghts.restartCFDEM'
System init for write_restart ...
LIGGGHTS finished

 timeStepFraction() = 1
[1] cellI = 1020
[1] index = 0
[1] Us = (1.08181e-06 1.54453e-06 1.36766e-05)
[1] Ur = (0.000299301 -0.000248372 -0.00272041)
[1] dprim = 1000
[1] phi = 1
[1] rho = 1
[1] nuf = 1
[1] voidfraction = 0.572436
[1] Rep = 0
[1] betaP = 0.000116847
[1] drag = (18.3116 -15.1957 -166.438)
[1] cellI = 1021
[1] index = 1
[1] Us = (-4.13678e-07 2.06035e-07 8.1563e-06)
[1] Ur = (-0.000139068 -0.000269001 -0.00209306)
[1] dprim = 1000
[1] phi = 1
[1] rho = 1
[1] nuf = 1
[1] voidfraction = 0.531367
[1] Rep = 0
[1] betaP = 0.000135992
[1] drag = (-9.90233 -19.1543 -149.037)

Solver level total Eulerian momentum exchange:
  TotalForceImp:  (3720.82 -3215.51 286623)
  Warning, these values are based on latest Ksl and Us but prev. iteration U!

DILUPBiCG:  Solving for Ux, Initial residual = 0.0606275, Final residual = 1.32655e-05, No Iterations 1
DILUPBiCG:  Solving for Uy, Initial residual = 0.0522821, Final residual = 1.44732e-05, No Iterations 1
DILUPBiCG:  Solving for Uz, Initial residual = 0.0201431, Final residual = 5.86924e-06, No Iterations 1
DICPCG:  Solving for p, Initial residual = 0.0153159, Final residual = 0.00122849, No Iterations 65
DICPCG:  Solving for p, Initial residual = 0.00140582, Final residual = 0.000108469, No Iterations 9
time step continuity errors : sum local = 2.87307e-08, global = 1.08061e-09, cumulative = 4.40321e-10
DICPCG:  Solving for p, Initial residual = 0.000140656, Final residual = 1.31397e-05, No Iterations 33
DICPCG:  Solving for p, Initial residual = 1.31423e-05, Final residual = 1.28759e-06, No Iterations 65
time step continuity errors : sum local = 3.40627e-10, global = 8.57197e-12, cumulative = 4.48893e-10
DICPCG:  Solving for p, Initial residual = 1.39073e-06, Final residual = 7.93919e-07, No Iterations 1
DICPCG:  Solving for p, Initial residual = 7.93919e-07, Final residual = 7.93919e-07, No Iterations 0
time step continuity errors : sum local = 2.1009e-10, global = 2.00003e-12, cumulative = 4.50893e-10
DICPCG:  Solving for p, Initial residual = 7.93826e-07, Final residual = 7.93826e-07, No Iterations 0
DICPCG:  Solving for p, Initial residual = 7.93826e-07, Final residual = 7.93826e-07, No Iterations 0
time step continuity errors : sum local = 2.10066e-10, global = 1.965e-12, cumulative = 4.52858e-10
ExecutionTime = 0.8 s  ClockTime = 1 s

Time = 14000

Courant Number mean: 0.00104487 max: 0.00456223

 Coupling...
Starting up LIGGGHTS
Executing command: 'run 100    '
Setting up run at Wed Mar  8 10:29:40 2023

Memory usage per processor = 7.0564 Mbytes
    Step    Atoms 
  351300     1400 
  351400     1400 
Loop time of 0.0371329 on 4 procs for 100 steps with 1400 atoms, finish time Wed Mar  8 10:29:40 2023


Pair  time (%) = 0.0144179 (38.8277)
Neigh time (%) = 0 (0)
Comm  time (%) = 0.00105819 (2.84974)
Outpt time (%) = 0.000199298 (0.536715)
Other time (%) = 0.0214576 (57.7859)

Nlocal:    350 ave 804 max 0 min
Histogram: 2 0 0 0 0 0 0 1 0 1
Nghost:    570.75 ave 1225 max 0 min
Histogram: 2 0 0 0 0 0 0 0 1 1
Neighs:    8394.25 ave 19047 max 0 min
Histogram: 2 0 0 0 0 0 0 1 0 1

Total # of neighbors = 33577
Ave neighs/atom = 23.9836
Neighbor list builds = 0
Dangerous builds = 0
Executing command: 'write_restart ../DEM/liggghts.restartCFDEM'
System init for write_restart ...
LIGGGHTS finished

 timeStepFraction() = 1
[1] cellI = 1020
[1] index = 0
[1] Us = (4.04751e-06 -3.92898e-06 -2.95844e-05)
[1] Ur = (0.000301927 -0.000241441 -0.00271438)
[1] dprim = 1000
[1] phi = 1
[1] rho = 1
[1] nuf = 1
[1] voidfraction = 0.572437
[1] Rep = 0
[1] betaP = 0.000116836
[1] drag = (18.4704 -14.7701 -166.052)
[1] cellI = 1021
[1] index = 1
[1] Us = (9.1593e-06 4.19234e-07 -1.61608e-05)
[1] Ur = (-0.000154976 -0.000278879 -0.00208328)
[1] dprim = 1000
[1] phi = 1
[1] rho = 1
[1] nuf = 1
[1] voidfraction = 0.531367
[1] Rep = 0
[1] betaP = 0.000135979
[1] drag = (-11.034 -19.8557 -148.326)

Solver level total Eulerian momentum exchange:
  TotalForceImp:  (2193.72 -3861.97 188071)
  Warning, these values are based on latest Ksl and Us but prev. iteration U!

DILUPBiCG:  Solving for Ux, Initial residual = 0.0483923, Final residual = 1.28326e-05, No Iterations 1
DILUPBiCG:  Solving for Uy, Initial residual = 0.0449015, Final residual = 1.32737e-05, No Iterations 1
DILUPBiCG:  Solving for Uz, Initial residual = 0.024941, Final residual = 6.42478e-06, No Iterations 1
DICPCG:  Solving for p, Initial residual = 0.025813, Final residual = 0.00212909, No Iterations 69
DICPCG:  Solving for p, Initial residual = 0.00286623, Final residual = 0.000249269, No Iterations 8
time step continuity errors : sum local = 4.85438e-08, global = 2.84006e-10, cumulative = 7.36863e-10
DICPCG:  Solving for p, Initial residual = 0.000323167, Final residual = 2.6272e-05, No Iterations 47
DICPCG:  Solving for p, Initial residual = 2.6278e-05, Final residual = 1.94793e-06, No Iterations 67
time step continuity errors : sum local = 3.78586e-10, global = 9.58755e-13, cumulative = 7.37822e-10
DICPCG:  Solving for p, Initial residual = 2.28642e-06, Final residual = 8.92902e-07, No Iterations 4
DICPCG:  Solving for p, Initial residual = 8.92902e-07, Final residual = 8.92902e-07, No Iterations 0
time step continuity errors : sum local = 1.73749e-10, global = -2.44031e-12, cumulative = 7.35382e-10
DICPCG:  Solving for p, Initial residual = 8.94803e-07, Final residual = 8.94803e-07, No Iterations 0
DICPCG:  Solving for p, Initial residual = 8.94803e-07, Final residual = 8.94803e-07, No Iterations 0
time step continuity errors : sum local = 1.74119e-10, global = -2.45884e-12, cumulative = 7.32923e-10
ExecutionTime = 0.86 s  ClockTime = 1 s

Time = 15000

Courant Number mean: 0.00104428 max: 0.00454758

 Coupling...
Starting up LIGGGHTS
Executing command: 'run 100    '
Setting up run at Wed Mar  8 10:29:40 2023

Memory usage per processor = 7.0564 Mbytes
    Step    Atoms 
  351400     1400 
  351500     1400 
Loop time of 0.0372183 on 4 procs for 100 steps with 1400 atoms, finish time Wed Mar  8 10:29:40 2023


Pair  time (%) = 0.014462 (38.8573)
Neigh time (%) = 0 (0)
Comm  time (%) = 0.00105615 (2.83772)
Outpt time (%) = 0.000198947 (0.534539)
Other time (%) = 0.0215012 (57.7704)

Nlocal:    350 ave 804 max 0 min
Histogram: 2 0 0 0 0 0 0 1 0 1
Nghost:    570.75 ave 1225 max 0 min
Histogram: 2 0 0 0 0 0 0 0 1 1
Neighs:    8394.25 ave 19047 max 0 min
Histogram: 2 0 0 0 0 0 0 1 0 1

Total # of neighbors = 33577
Ave neighs/atom = 23.9836
Neighbor list builds = 0
Dangerous builds = 0
Executing command: 'write_restart ../DEM/liggghts.restartCFDEM'
System init for write_restart ...
LIGGGHTS finished

 timeStepFraction() = 1
[1] cellI = 1020
[1] index = 0
[1] Us = (4.42954e-07 -8.3189e-07 -4.08195e-05)
[1] Ur = (0.000293035 -0.000218852 -0.00268476)
[1] dprim = 1000
[1] phi = 1
[1] rho = 1
[1] nuf = 1
[1] voidfraction = 0.57245
[1] Rep = 0
[1] betaP = 0.000116773
[1] drag = (17.9168 -13.3811 -164.153)
[1] cellI = 1021
[1] index = 1
[1] Us = (5.86056e-06 1.55791e-06 -2.26446e-05)
[1] Ur = (-0.000151936 -0.000298905 -0.00205344)
[1] dprim = 1000
[1] phi = 1
[1] rho = 1
[1] nuf = 1
[1] voidfraction = 0.531375
[1] Rep = 0
[1] betaP = 0.000135928
[1] drag = (-10.8136 -21.2736 -146.147)

Solver level total Eulerian momentum exchange:
  TotalForceImp:  (-16206.7 -3174.09 202807)
  Warning, these values are based on latest Ksl and Us but prev. iteration U!

DILUPBiCG:  Solving for Ux, Initial residual = 0.0882141, Final residual = 1.61036e-05, No Iterations 1
DILUPBiCG:  Solving for Uy, Initial residual = 0.0759622, Final residual = 1.41256e-05, No Iterations 1
DILUPBiCG:  Solving for Uz, Initial residual = 0.00926852, Final residual = 1.67384e-06, No Iterations 1
DICPCG:  Solving for p, Initial residual = 0.0846116, Final residual = 0.00828645, No Iterations 69
DICPCG:  Solving for p, Initial residual = 0.0139521, Final residual = 0.00129205, No Iterations 5
time step continuity errors : sum local = 1.51712e-07, global = 4.40959e-10, cumulative = 1.17388e-09
DICPCG:  Solving for p, Initial residual = 0.00143052, Final residual = 0.000109112, No Iterations 32
DICPCG:  Solving for p, Initial residual = 0.000109291, Final residual = 8.92366e-06, No Iterations 23
time step continuity errors : sum local = 1.03704e-09, global = 2.6173e-10, cumulative = 1.43561e-09
DICPCG:  Solving for p, Initial residual = 1.01752e-05, Final residual = 8.54134e-07, No Iterations 68
DICPCG:  Solving for p, Initial residual = 8.54362e-07, Final residual = 8.54362e-07, No Iterations 0
time step continuity errors : sum local = 9.92517e-11, global = 1.92097e-12, cumulative = 1.43753e-09
DICPCG:  Solving for p, Initial residual = 8.57751e-07, Final residual = 8.57751e-07, No Iterations 0
DICPCG:  Solving for p, Initial residual = 8.57751e-07, Final residual = 8.57751e-07, No Iterations 0
time step continuity errors : sum local = 9.96454e-11, global = 5.18761e-13, cumulative = 1.43805e-09
ExecutionTime = 0.91 s  ClockTime = 1 s

Time = 16000

Courant Number mean: 0.00104347 max: 0.0043612

 Coupling...
Starting up LIGGGHTS
Executing command: 'run 100    '
Setting up run at Wed Mar  8 10:29:40 2023

Memory usage per processor = 7.0564 Mbytes
    Step    Atoms 
  351500     1400 
  351600     1400 
Loop time of 0.0375822 on 4 procs for 100 steps with 1400 atoms, finish time Wed Mar  8 10:29:40 2023


Pair  time (%) = 0.0145386 (38.6847)
Neigh time (%) = 0 (0)
Comm  time (%) = 0.00106002 (2.82052)
Outpt time (%) = 0.000200773 (0.534224)
Other time (%) = 0.0217829 (57.9605)

Nlocal:    350 ave 804 max 0 min
Histogram: 2 0 0 0 0 0 0 1 0 1
Nghost:    570.75 ave 1225 max 0 min
Histogram: 2 0 0 0 0 0 0 0 1 1
Neighs:    8394.75 ave 19048 max 0 min
Histogram: 2 0 0 0 0 0 0 1 0 1

Total # of neighbors = 33579
Ave neighs/atom = 23.985
Neighbor list builds = 0
Dangerous builds = 0
Executing command: 'write_restart ../DEM/liggghts.restartCFDEM'
System init for write_restart ...
LIGGGHTS finished

 timeStepFraction() = 1
[1] cellI = 1020
[1] index = 0
[1] Us = (-4.58893e-07 -1.69927e-06 -3.16461e-06)
[1] Ur = (0.000179008 -0.000127948 -0.00251727)
[1] dprim = 1000
[1] phi = 1
[1] rho = 1
[1] nuf = 1
[1] voidfraction = 0.572458
[1] Rep = 0
[1] betaP = 0.00011645
[1] drag = (10.9147 -7.80141 -153.486)
[1] cellI = 1021
[1] index = 1
[1] Us = (-1.12438e-06 -5.53381e-07 -1.18232e-06)
[1] Ur = (-0.000107592 -0.000295442 -0.00203418)
[1] dprim = 1000
[1] phi = 1
[1] rho = 1
[1] nuf = 1
[1] voidfraction = 0.531378
[1] Rep = 0
[1] betaP = 0.000135887
[1] drag = (-7.65517 -21.0207 -144.732)

Solver level total Eulerian momentum exchange:
  TotalForceImp:  (-4933.42 147.617 323566)
  Warning, these values are based on latest Ksl and Us but prev. iteration U!

DILUPBiCG:  Solving for Ux, Initial residual = 0.10031, Final residual = 4.32908e-05, No Iterations 1
DILUPBiCG:  Solving for Uy, Initial residual = 0.0956673, Final residual = 3.87745e-05, No Iterations 1
DILUPBiCG:  Solving for Uz, Initial residual = 0.0485444, Final residual = 1.58736e-05, No Iterations 1
DICPCG:  Solving for p, Initial residual = 0.211404, Final residual = 0.0209865, No Iterations 69
DICPCG:  Solving for p, Initial residual = 0.00766412, Final residual = 0.0005623, No Iterations 5
time step continuity errors : sum local = 1.75484e-07, global = -1.23973e-09, cumulative = 1.98323e-10
DICPCG:  Solving for p, Initial residual = 0.000674416, Final residual = 6.56441e-05, No Iterations 33
DICPCG:  Solving for p, Initial residual = 6.5645e-05, Final residual = 4.34467e-06, No Iterations 66
time step continuity errors : sum local = 1.34915e-09, global = -1.34041e-11, cumulative = 1.84919e-10
DICPCG:  Solving for p, Initial residual = 4.71097e-06, Final residual = 7.03045e-07, No Iterations 5
DICPCG:  Solving for p, Initial residual = 7.03046e-07, Final residual = 7.03046e-07, No Iterations 0
time step continuity errors : sum local = 2.17894e-10, global = 2.03167e-11, cumulative = 2.05236e-10
DICPCG:  Solving for p, Initial residual = 7.03699e-07, Final residual = 7.03699e-07, No Iterations 0
DICPCG:  Solving for p, Initial residual = 7.03699e-07, Final residual = 7.03699e-07, No Iterations 0
time step continuity errors : sum local = 2.18097e-10, global = 2.05292e-11, cumulative = 2.25765e-10
ExecutionTime = 0.97 s  ClockTime = 1 s

Time = 17000

Courant Number mean: 0.00104458 max: 0.00460377

 Coupling...
Starting up LIGGGHTS
Executing command: 'run 100    '
Setting up run at Wed Mar  8 10:29:40 2023

Memory usage per processor = 7.0564 Mbytes
    Step    Atoms 
  351600     1400 
  351700     1400 
Loop time of 0.0371792 on 4 procs for 100 steps with 1400 atoms, finish time Wed Mar  8 10:29:40 2023


Pair  time (%) = 0.0143354 (38.5576)
Neigh time (%) = 0 (0)
Comm  time (%) = 0.00105301 (2.83226)
Outpt time (%) = 0.000201457 (0.541854)
Other time (%) = 0.0215893 (58.0683)

Nlocal:    350 ave 804 max 0 min
Histogram: 2 0 0 0 0 0 0 1 0 1
Nghost:    570.75 ave 1225 max 0 min
Histogram: 2 0 0 0 0 0 0 0 1 1
Neighs:    8394.75 ave 19048 max 0 min
Histogram: 2 0 0 0 0 0 0 1 0 1

Total # of neighbors = 33579
Ave neighs/atom = 23.985
Neighbor list builds = 0
Dangerous builds = 0
Executing command: 'write_restart ../DEM/liggghts.restartCFDEM'
System init for write_restart ...
LIGGGHTS finished

 timeStepFraction() = 1
[1] cellI = 1020
[1] index = 0
[1] Us = (-5.6968e-07 3.88369e-06 4.83653e-05)
[1] Ur = (0.000236852 -0.000163962 -0.00272594)
[1] dprim = 1000
[1] phi = 1
[1] rho = 1
[1] nuf = 1
[1] voidfraction = 0.572446
[1] Rep = 0
[1] betaP = 0.00011683
[1] drag = (14.4888 -10.0299 -166.752)
[1] cellI = 1021
[1] index = 1
[1] Us = (-8.58709e-06 1.06609e-06 2.64929e-05)
[1] Ur = (-0.000109545 -0.000290408 -0.00213845)
[1] dprim = 1000
[1] phi = 1
[1] rho = 1
[1] nuf = 1
[1] voidfraction = 0.531372
[1] Rep = 0
[1] betaP = 0.00013607
[1] drag = (-7.80463 -20.6904 -152.356)

Solver level total Eulerian momentum exchange:
  TotalForceImp:  (-5372.26 3481.4 416748)
  Warning, these values are based on latest Ksl and Us but prev. iteration U!

DILUPBiCG:  Solving for Ux, Initial residual = 0.061223, Final residual = 2.6764e-05, No Iterations 1
DILUPBiCG:  Solving for Uy, Initial residual = 0.058534, Final residual = 2.4561e-05, No Iterations 1
DILUPBiCG:  Solving for Uz, Initial residual = 0.0259664, Final residual = 8.0052e-06, No Iterations 1
DICPCG:  Solving for p, Initial residual = 0.0196136, Final residual = 0.00187784, No Iterations 9
DICPCG:  Solving for p, Initial residual = 0.00188548, Final residual = 0.000148575, No Iterations 65
time step continuity errors : sum local = 4.60807e-08, global = 1.18145e-09, cumulative = 1.40721e-09
DICPCG:  Solving for p, Initial residual = 0.000177862, Final residual = 1.51393e-05, No Iterations 9
DICPCG:  Solving for p, Initial residual = 1.51405e-05, Final residual = 1.43921e-06, No Iterations 67
time step continuity errors : sum local = 4.33386e-10, global = -9.4125e-12, cumulative = 1.3978e-09
DICPCG:  Solving for p, Initial residual = 1.55542e-06, Final residual = 7.23434e-07, No Iterations 3
DICPCG:  Solving for p, Initial residual = 7.23434e-07, Final residual = 7.23434e-07, No Iterations 0
time step continuity errors : sum local = 2.17865e-10, global = -2.53726e-12, cumulative = 1.39526e-09
DICPCG:  Solving for p, Initial residual = 7.26106e-07, Final residual = 7.26106e-07, No Iterations 0
DICPCG:  Solving for p, Initial residual = 7.26106e-07, Final residual = 7.26106e-07, No Iterations 0
time step continuity errors : sum local = 2.18669e-10, global = -2.51205e-12, cumulative = 1.39275e-09
ExecutionTime = 1.03 s  ClockTime = 1 s

Time = 18000

Courant Number mean: 0.0010466 max: 0.00479684

 Coupling...
Starting up LIGGGHTS
Executing command: 'run 100    '
Setting up run at Wed Mar  8 10:29:40 2023

Memory usage per processor = 7.0564 Mbytes
    Step    Atoms 
  351700     1400 
  351800     1400 
Loop time of 0.0369977 on 4 procs for 100 steps with 1400 atoms, finish time Wed Mar  8 10:29:40 2023


Pair  time (%) = 0.0143574 (38.8063)
Neigh time (%) = 0 (0)
Comm  time (%) = 0.00104868 (2.83444)
Outpt time (%) = 0.000198936 (0.537698)
Other time (%) = 0.0213927 (57.8216)

Nlocal:    350 ave 804 max 0 min
Histogram: 2 0 0 0 0 0 0 1 0 1
Nghost:    570.75 ave 1225 max 0 min
Histogram: 2 0 0 0 0 0 0 0 1 1
Neighs:    8394.75 ave 19048 max 0 min
Histogram: 2 0 0 0 0 0 0 1 0 1

Total # of neighbors = 33579
Ave neighs/atom = 23.985
Neighbor list builds = 0
Dangerous builds = 0
Executing command: 'write_restart ../DEM/liggghts.restartCFDEM'
System init for write_restart ...
LIGGGHTS finished

 timeStepFraction() = 1
[1] cellI = 1020
[1] index = 0
[1] Us = (-1.61169e-06 -2.48673e-07 1.44354e-06)
[1] Ur = (0.000262712 -0.000176702 -0.00275133)
[1] dprim = 1000
[1] phi = 1
[1] rho = 1
[1] nuf = 1
[1] voidfraction = 0.572444
[1] Rep = 0
[1] betaP = 0.000116881
[1] drag = (16.0776 -10.8139 -168.378)
[1] cellI = 1021
[1] index = 1
[1] Us = (2.84413e-06 -4.51977e-06 4.81484e-07)
[1] Ur = (-0.000136332 -0.000284917 -0.00213962)
[1] dprim = 1000
[1] phi = 1
[1] rho = 1
[1] nuf = 1
[1] voidfraction = 0.531371
[1] Rep = 0
[1] betaP = 0.000136073
[1] drag = (-9.71335 -20.2998 -152.443)

Solver level total Eulerian momentum exchange:
  TotalForceImp:  (4217.51 -5277.44 305687)
  Warning, these values are based on latest Ksl and Us but prev. iteration U!

DILUPBiCG:  Solving for Ux, Initial residual = 0.064355, Final residual = 1.26482e-05, No Iterations 1
DILUPBiCG:  Solving for Uy, Initial residual = 0.0552955, Final residual = 1.45858e-05, No Iterations 1
DILUPBiCG:  Solving for Uz, Initial residual = 0.016972, Final residual = 4.94176e-06, No Iterations 1
DICPCG:  Solving for p, Initial residual = 0.0164609, Final residual = 0.000983716, No Iterations 70
DICPCG:  Solving for p, Initial residual = 0.00107246, Final residual = 0.00010131, No Iterations 6
time step continuity errors : sum local = 2.80507e-08, global = 1.09107e-10, cumulative = 1.50186e-09
DICPCG:  Solving for p, Initial residual = 0.000130451, Final residual = 1.26223e-05, No Iterations 36
DICPCG:  Solving for p, Initial residual = 1.26235e-05, Final residual = 8.85145e-07, No Iterations 68
time step continuity errors : sum local = 2.4489e-10, global = 3.21996e-12, cumulative = 1.50508e-09
DICPCG:  Solving for p, Initial residual = 9.64519e-07, Final residual = 9.64519e-07, No Iterations 0
DICPCG:  Solving for p, Initial residual = 9.64519e-07, Final residual = 9.64519e-07, No Iterations 0
time step continuity errors : sum local = 2.66933e-10, global = 2.85195e-12, cumulative = 1.50793e-09
DICPCG:  Solving for p, Initial residual = 9.65223e-07, Final residual = 9.65223e-07, No Iterations 0
DICPCG:  Solving for p, Initial residual = 9.65223e-07, Final residual = 9.65223e-07, No Iterations 0
time step continuity errors : sum local = 2.67128e-10, global = 2.85063e-12, cumulative = 1.51078e-09
ExecutionTime = 1.09 s  ClockTime = 1 s

Time = 19000

Courant Number mean: 0.00104836 max: 0.0049822

 Coupling...
Starting up LIGGGHTS
Executing command: 'run 100    '
Setting up run at Wed Mar  8 10:29:40 2023

Memory usage per processor = 7.0564 Mbytes
    Step    Atoms 
  351800     1400 
  351900     1400 
Loop time of 0.0371339 on 4 procs for 100 steps with 1400 atoms, finish time Wed Mar  8 10:29:40 2023


Pair  time (%) = 0.0143489 (38.6411)
Neigh time (%) = 0 (0)
Comm  time (%) = 0.00105453 (2.83982)
Outpt time (%) = 0.000199982 (0.538545)
Other time (%) = 0.0215304 (57.9806)

Nlocal:    350 ave 804 max 0 min
Histogram: 2 0 0 0 0 0 0 1 0 1
Nghost:    570.75 ave 1225 max 0 min
Histogram: 2 0 0 0 0 0 0 0 1 1
Neighs:    8394.25 ave 19047 max 0 min
Histogram: 2 0 0 0 0 0 0 1 0 1

Total # of neighbors = 33577
Ave neighs/atom = 23.9836
Neighbor list builds = 0
Dangerous builds = 0
Executing command: 'write_restart ../DEM/liggghts.restartCFDEM'
System init for write_restart ...
LIGGGHTS finished

 timeStepFraction() = 1
[1] cellI = 1020
[1] index = 0
[1] Us = (7.77128e-06 -1.35647e-06 9.75146e-06)
[1] Ur = (0.000259754 -0.000172011 -0.00278163)
[1] dprim = 1000
[1] phi = 1
[1] rho = 1
[1] nuf = 1
[1] voidfraction = 0.572438
[1] Rep = 0
[1] betaP = 0.000116935
[1] drag = (15.904 -10.5317 -170.311)
[1] cellI = 1021
[1] index = 1
[1] Us = (1.30466e-06 3.11044e-06 5.41143e-06)
[1] Ur = (-0.000143071 -0.00029326 -0.00215311)
[1] dprim = 1000
[1] phi = 1
[1] rho = 1
[1] nuf = 1
[1] voidfraction = 0.531368
[1] Rep = 0
[1] betaP = 0.000136101
[1] drag = (-10.1956 -20.8984 -153.436)

Solver level total Eulerian momentum exchange:
  TotalForceImp:  (-11663.7 8323.66 267097)
  Warning, these values are based on latest Ksl and Us but prev. iteration U!

DILUPBiCG:  Solving for Ux, Initial residual = 0.0661993, Final residual = 1.9685e-05, No Iterations 1
DILUPBiCG:  Solving for Uy, Initial residual = 0.0614824, Final residual = 1.4269e-05, No Iterations 1
DILUPBiCG:  Solving for Uz, Initial residual = 0.0135815, Final residual = 4.43597e-06, No Iterations 1
DICPCG:  Solving for p, Initial residual = 0.0241962, Final residual = 0.00206556, No Iterations 70
DICPCG:  Solving for p, Initial residual = 0.0024836, Final residual = 0.00020692, No Iterations 6
time step continuity errors : sum local = 4.71943e-08, global = 1.69482e-09, cumulative = 3.2056e-09
DICPCG:  Solving for p, Initial residual = 0.000269038, Final residual = 2.45845e-05, No Iterations 37
DICPCG:  Solving for p, Initial residual = 2.45928e-05, Final residual = 2.39299e-06, No Iterations 54
time step continuity errors : sum local = 5.44724e-10, global = -1.03434e-10, cumulative = 3.10217e-09
DICPCG:  Solving for p, Initial residual = 2.5396e-06, Final residual = 9.10048e-07, No Iterations 26
DICPCG:  Solving for p, Initial residual = 9.1004e-07, Final residual = 9.1004e-07, No Iterations 0
time step continuity errors : sum local = 2.07284e-10, global = -4.45208e-12, cumulative = 3.09772e-09
DICPCG:  Solving for p, Initial residual = 9.12388e-07, Final residual = 9.12388e-07, No Iterations 0
DICPCG:  Solving for p, Initial residual = 9.12388e-07, Final residual = 9.12388e-07, No Iterations 0
time step continuity errors : sum local = 2.07819e-10, global = -3.92473e-12, cumulative = 3.09379e-09
ExecutionTime = 1.14 s  ClockTime = 1 s

Time = 20000

Courant Number mean: 0.00104773 max: 0.0049373

 Coupling...
Starting up LIGGGHTS
Executing command: 'run 100    '
Setting up run at Wed Mar  8 10:29:40 2023

Memory usage per processor = 7.0564 Mbytes
    Step    Atoms 
  351900     1400 
  352000     1400 
Loop time of 0.0370722 on 4 procs for 100 steps with 1400 atoms, finish time Wed Mar  8 10:29:40 2023


Pair  time (%) = 0.0143784 (38.7849)
Neigh time (%) = 0 (0)
Comm  time (%) = 0.0010522 (2.83825)
Outpt time (%) = 0.000201395 (0.543251)
Other time (%) = 0.0214402 (57.8336)

Nlocal:    350 ave 804 max 0 min
Histogram: 2 0 0 0 0 0 0 1 0 1
Nghost:    570.75 ave 1225 max 0 min
Histogram: 2 0 0 0 0 0 0 0 1 1
Neighs:    8394.25 ave 19047 max 0 min
Histogram: 2 0 0 0 0 0 0 1 0 1

Total # of neighbors = 33577
Ave neighs/atom = 23.9836
Neighbor list builds = 0
Dangerous builds = 0
Executing command: 'write_restart ../DEM/liggghts.restartCFDEM'
System init for write_restart ...
LIGGGHTS finished

 timeStepFraction() = 1
[1] cellI = 1020
[1] index = 0
[1] Us = (-8.86128e-06 1.05959e-06 -4.81789e-05)
[1] Ur = (0.000283884 -0.000185424 -0.00277135)
[1] dprim = 1000
[1] phi = 1
[1] rho = 1
[1] nuf = 1
[1] voidfraction = 0.572445
[1] Rep = 0
[1] betaP = 0.00011692
[1] drag = (17.3791 -11.3515 -169.66)
[1] cellI = 1021
[1] index = 1
[1] Us = (5.20618e-07 2.35561e-06 -2.55867e-05)
[1] Ur = (-0.000150042 -0.000300216 -0.00212902)
[1] dprim = 1000
[1] phi = 1
[1] rho = 1
[1] nuf = 1
[1] voidfraction = 0.531372
[1] Rep = 0
[1] betaP = 0.00013606
[1] drag = (-10.6892 -21.3877 -151.673)

Solver level total Eulerian momentum exchange:
  TotalForceImp:  (-9407.83 1901.28 158863)
  Warning, these values are based on latest Ksl and Us but prev. iteration U!

DILUPBiCG:  Solving for Ux, Initial residual = 0.0550654, Final residual = 1.48203e-05, No Iterations 1
DILUPBiCG:  Solving for Uy, Initial residual = 0.0455244, Final residual = 1.19689e-05, No Iterations 1
DILUPBiCG:  Solving for Uz, Initial residual = 0.0229339, Final residual = 4.28923e-06, No Iterations 1
DICPCG:  Solving for p, Initial residual = 0.0321877, Final residual = 0.00189874, No Iterations 70
DICPCG:  Solving for p, Initial residual = 0.00238819, Final residual = 0.00017903, No Iterations 6
time step continuity errors : sum local = 3.2142e-08, global = 4.05453e-10, cumulative = 3.49925e-09
DICPCG:  Solving for p, Initial residual = 0.000244702, Final residual = 2.35556e-05, No Iterations 38
DICPCG:  Solving for p, Initial residual = 2.35595e-05, Final residual = 2.30288e-06, No Iterations 53
time step continuity errors : sum local = 4.12732e-10, global = 3.60994e-11, cumulative = 3.53534e-09
DICPCG:  Solving for p, Initial residual = 2.42742e-06, Final residual = 8.89728e-07, No Iterations 22
DICPCG:  Solving for p, Initial residual = 8.89733e-07, Final residual = 8.89733e-07, No Iterations 0
time step continuity errors : sum local = 1.59585e-10, global = -4.90722e-12, cumulative = 3.53044e-09
DICPCG:  Solving for p, Initial residual = 8.91662e-07, Final residual = 8.91662e-07, No Iterations 0
DICPCG:  Solving for p, Initial residual = 8.91662e-07, Final residual = 8.91662e-07, No Iterations 0
time step continuity errors : sum local = 1.59931e-10, global = -5.12316e-12, cumulative = 3.52531e-09
ExecutionTime = 1.22 s  ClockTime = 1 s

Time = 21000

Courant Number mean: 0.00104669 max: 0.00485742

 Coupling...
Starting up LIGGGHTS
Executing command: 'run 100    '
Setting up run at Wed Mar  8 10:29:40 2023

Memory usage per processor = 7.0564 Mbytes
    Step    Atoms 
  352000     1400 
  352100     1400 
Loop time of 0.0370796 on 4 procs for 100 steps with 1400 atoms, finish time Wed Mar  8 10:29:40 2023


Pair  time (%) = 0.0143657 (38.7428)
Neigh time (%) = 0 (0)
Comm  time (%) = 0.00105199 (2.83712)
Outpt time (%) = 0.000199473 (0.537959)
Other time (%) = 0.0214625 (57.8821)

Nlocal:    350 ave 804 max 0 min
Histogram: 2 0 0 0 0 0 0 1 0 1
Nghost:    570.75 ave 1225 max 0 min
Histogram: 2 0 0 0 0 0 0 0 1 1
Neighs:    8394.5 ave 19048 max 0 min
Histogram: 2 0 0 0 0 0 0 1 0 1

Total # of neighbors = 33578
Ave neighs/atom = 23.9843
Neighbor list builds = 0
Dangerous builds = 0
Executing command: 'write_restart ../DEM/liggghts.restartCFDEM'
System init for write_restart ...
LIGGGHTS finished

 timeStepFraction() = 1
[1] cellI = 1020
[1] index = 0
[1] Us = (3.01111e-06 -2.44506e-06 -7.00331e-06)
[1] Ur = (0.000264801 -0.000166402 -0.00275954)
[1] dprim = 1000
[1] phi = 1
[1] rho = 1
[1] nuf = 1
[1] voidfraction = 0.572458
[1] Rep = 0
[1] betaP = 0.000116888
[1] drag = (16.2064 -10.1842 -168.89)
[1] cellI = 1021
[1] index = 1
[1] Us = (1.89556e-06 -2.64491e-06 -4.32487e-06)
[1] Ur = (-0.00014875 -0.000297522 -0.00212007)
[1] dprim = 1000
[1] phi = 1
[1] rho = 1
[1] nuf = 1
[1] voidfraction = 0.531379
[1] Rep = 0
[1] betaP = 0.00013604
[1] drag = (-10.5955 -21.1926 -151.013)

Solver level total Eulerian momentum exchange:
  TotalForceImp:  (920.254 -4606.67 345760)
  Warning, these values are based on latest Ksl and Us but prev. iteration U!

DILUPBiCG:  Solving for Ux, Initial residual = 0.046853, Final residual = 1.50014e-05, No Iterations 1
DILUPBiCG:  Solving for Uy, Initial residual = 0.0413644, Final residual = 1.32206e-05, No Iterations 1
DILUPBiCG:  Solving for Uz, Initial residual = 0.0254656, Final residual = 7.32958e-06, No Iterations 1
DICPCG:  Solving for p, Initial residual = 0.0400148, Final residual = 0.00302322, No Iterations 69
DICPCG:  Solving for p, Initial residual = 0.00216549, Final residual = 0.000203454, No Iterations 6
time step continuity errors : sum local = 5.10728e-08, global = 4.64148e-10, cumulative = 3.98946e-09
DICPCG:  Solving for p, Initial residual = 0.000266355, Final residual = 2.59501e-05, No Iterations 46
DICPCG:  Solving for p, Initial residual = 2.59523e-05, Final residual = 1.72682e-06, No Iterations 68
time step continuity errors : sum local = 4.3288e-10, global = -3.34152e-13, cumulative = 3.98913e-09
DICPCG:  Solving for p, Initial residual = 1.88899e-06, Final residual = 8.03025e-07, No Iterations 3
DICPCG:  Solving for p, Initial residual = 8.03025e-07, Final residual = 8.03025e-07, No Iterations 0
time step continuity errors : sum local = 2.01081e-10, global = 3.17199e-13, cumulative = 3.98945e-09
DICPCG:  Solving for p, Initial residual = 8.0702e-07, Final residual = 8.0702e-07, No Iterations 0
DICPCG:  Solving for p, Initial residual = 8.0702e-07, Final residual = 8.0702e-07, No Iterations 0
time step continuity errors : sum local = 2.02082e-10, global = 3.09389e-13, cumulative = 3.98975e-09
ExecutionTime = 1.27 s  ClockTime = 1 s

Time = 22000

Courant Number mean: 0.00104753 max: 0.00494311

 Coupling...
Starting up LIGGGHTS
Executing command: 'run 100    '
Setting up run at Wed Mar  8 10:29:40 2023

Memory usage per processor = 7.0564 Mbytes
    Step    Atoms 
  352100     1400 
  352200     1400 
Loop time of 0.0371491 on 4 procs for 100 steps with 1400 atoms, finish time Wed Mar  8 10:29:40 2023


Pair  time (%) = 0.0143915 (38.7398)
Neigh time (%) = 0 (0)
Comm  time (%) = 0.00104807 (2.82125)
Outpt time (%) = 0.000199975 (0.538303)
Other time (%) = 0.0215096 (57.9007)

Nlocal:    350 ave 804 max 0 min
Histogram: 2 0 0 0 0 0 0 1 0 1
Nghost:    570.75 ave 1225 max 0 min
Histogram: 2 0 0 0 0 0 0 0 1 1
Neighs:    8394.75 ave 19048 max 0 min
Histogram: 2 0 0 0 0 0 0 1 0 1

Total # of neighbors = 33579
Ave neighs/atom = 23.985
Neighbor list builds = 0
Dangerous builds = 0
Executing command: 'write_restart ../DEM/liggghts.restartCFDEM'
System init for write_restart ...
LIGGGHTS finished

 timeStepFraction() = 1
[1] cellI = 1020
[1] index = 0
[1] Us = (7.90947e-07 -6.38784e-08 2.85228e-05)
[1] Ur = (0.000265417 -0.000155901 -0.00282326)
[1] dprim = 1000
[1] phi = 1
[1] rho = 1
[1] nuf = 1
[1] voidfraction = 0.57245
[1] Rep = 0
[1] betaP = 0.000117002
[1] drag = (16.26 -9.55078 -172.959)
[1] cellI = 1021
[1] index = 1
[1] Us = (-1.79381e-06 1.21248e-06 1.62348e-05)
[1] Ur = (-0.000142652 -0.000300507 -0.00215071)
[1] dprim = 1000
[1] phi = 1
[1] rho = 1
[1] nuf = 1
[1] voidfraction = 0.531374
[1] Rep = 0
[1] betaP = 0.000136095
[1] drag = (-10.1653 -21.4139 -153.259)

Solver level total Eulerian momentum exchange:
  TotalForceImp:  (-1405.54 4823.95 394667)
  Warning, these values are based on latest Ksl and Us but prev. iteration U!

DILUPBiCG:  Solving for Ux, Initial residual = 0.0276116, Final residual = 7.97379e-06, No Iterations 1
DILUPBiCG:  Solving for Uy, Initial residual = 0.0272897, Final residual = 8.24409e-06, No Iterations 1
DILUPBiCG:  Solving for Uz, Initial residual = 0.0157041, Final residual = 3.57355e-06, No Iterations 1
DICPCG:  Solving for p, Initial residual = 0.0130672, Final residual = 0.00122007, No Iterations 67
DICPCG:  Solving for p, Initial residual = 0.00111344, Final residual = 9.29452e-05, No Iterations 9
time step continuity errors : sum local = 2.57185e-08, global = -3.74886e-10, cumulative = 3.61487e-09
DICPCG:  Solving for p, Initial residual = 0.000106866, Final residual = 8.62373e-06, No Iterations 33
[...]
ExecutionTime = 5.52 s  ClockTime = 6 s

Time = 95000

Courant Number mean: 0.00105863 max: 0.0060153

 Coupling...
Starting up LIGGGHTS
Executing command: 'run 100    '
Setting up run at Wed Mar  8 10:29:45 2023

Memory usage per processor = 7.0564 Mbytes
    Step    Atoms 
  359400     1400 
  359500     1400 
Loop time of 0.0371733 on 4 procs for 100 steps with 1400 atoms, finish time Wed Mar  8 10:29:45 2023


Pair  time (%) = 0.0143675 (38.65)
Neigh time (%) = 0 (0)
Comm  time (%) = 0.00104018 (2.79819)
Outpt time (%) = 0.000200049 (0.538152)
Other time (%) = 0.0215656 (58.0137)

Nlocal:    350 ave 804 max 0 min
Histogram: 2 0 0 0 0 0 0 1 0 1
Nghost:    570.75 ave 1225 max 0 min
Histogram: 2 0 0 0 0 0 0 0 1 1
Neighs:    8394.5 ave 19048 max 0 min
Histogram: 2 0 0 0 0 0 0 1 0 1

Total # of neighbors = 33578
Ave neighs/atom = 23.9843
Neighbor list builds = 0
Dangerous builds = 0
Executing command: 'write_restart ../DEM/liggghts.restartCFDEM'
System init for write_restart ...
LIGGGHTS finished

 timeStepFraction() = 1
[1] cellI = 1020
[1] index = 0
[1] Us = (-2.78737e-06 -7.13329e-07 -1.71709e-05)
[1] Ur = (2.28587e-05 0.000101413 -0.00262266)
[1] dprim = 1000
[1] phi = 1
[1] rho = 1
[1] nuf = 1
[1] voidfraction = 0.572449
[1] Rep = 0
[1] betaP = 0.000116625
[1] drag = (1.39586 6.19279 -160.152)
[1] cellI = 1021
[1] index = 1
[1] Us = (-1.93805e-06 -2.22255e-07 -8.90292e-06)
[1] Ur = (-7.53979e-05 -0.000186121 -0.00207866)
[1] dprim = 1000
[1] phi = 1
[1] rho = 1
[1] nuf = 1
[1] voidfraction = 0.531374
[1] Rep = 0
[1] betaP = 0.000135942
[1] drag = (-5.36674 -13.2479 -147.957)

Solver level total Eulerian momentum exchange:
  TotalForceImp:  (-33067.5 -11763.5 284587)
  Warning, these values are based on latest Ksl and Us but prev. iteration U!

DILUPBiCG:  Solving for Ux, Initial residual = 0.0673641, Final residual = 9.85104e-06, No Iterations 1
DILUPBiCG:  Solving for Uy, Initial residual = 0.0422383, Final residual = 9.06886e-06, No Iterations 1
DILUPBiCG:  Solving for Uz, Initial residual = 0.00802971, Final residual = 2.12823e-06, No Iterations 1
DICPCG:  Solving for p, Initial residual = 0.0328238, Final residual = 0.00300368, No Iterations 37
DICPCG:  Solving for p, Initial residual = 0.00300592, Final residual = 0.000252974, No Iterations 62
time step continuity errors : sum local = 4.48066e-08, global = -5.65825e-10, cumulative = 2.63895e-09
DICPCG:  Solving for p, Initial residual = 0.000270572, Final residual = 2.34984e-05, No Iterations 14
DICPCG:  Solving for p, Initial residual = 2.35001e-05, Final residual = 1.77807e-06, No Iterations 68
time step continuity errors : sum local = 3.48764e-10, global = 2.26998e-12, cumulative = 2.64122e-09
DICPCG:  Solving for p, Initial residual = 2.02559e-06, Final residual = 7.35123e-07, No Iterations 3
DICPCG:  Solving for p, Initial residual = 7.35124e-07, Final residual = 7.35124e-07, No Iterations 0
time step continuity errors : sum local = 1.44123e-10, global = 5.93308e-12, cumulative = 2.64716e-09
DICPCG:  Solving for p, Initial residual = 7.37976e-07, Final residual = 7.37976e-07, No Iterations 0
DICPCG:  Solving for p, Initial residual = 7.37976e-07, Final residual = 7.37976e-07, No Iterations 0
time step continuity errors : sum local = 1.44682e-10, global = 5.94964e-12, cumulative = 2.65311e-09
ExecutionTime = 5.58 s  ClockTime = 6 s

Time = 96000

Courant Number mean: 0.00105862 max: 0.00599874

 Coupling...
Starting up LIGGGHTS
Executing command: 'run 100    '
Setting up run at Wed Mar  8 10:29:45 2023

Memory usage per processor = 7.0564 Mbytes
    Step    Atoms 
  359500     1400 
  359600     1400 
Loop time of 0.0371646 on 4 procs for 100 steps with 1400 atoms, finish time Wed Mar  8 10:29:45 2023


Pair  time (%) = 0.0143719 (38.671)
Neigh time (%) = 0 (0)
Comm  time (%) = 0.00104214 (2.80413)
Outpt time (%) = 0.000199786 (0.537571)
Other time (%) = 0.0215507 (57.9873)

Nlocal:    350 ave 804 max 0 min
Histogram: 2 0 0 0 0 0 0 1 0 1
Nghost:    570.75 ave 1225 max 0 min
Histogram: 2 0 0 0 0 0 0 0 1 1
Neighs:    8394.75 ave 19048 max 0 min
Histogram: 2 0 0 0 0 0 0 1 0 1

Total # of neighbors = 33579
Ave neighs/atom = 23.985
Neighbor list builds = 0
Dangerous builds = 0
Executing command: 'write_restart ../DEM/liggghts.restartCFDEM'
System init for write_restart ...
LIGGGHTS finished

 timeStepFraction() = 1
[1] cellI = 1020
[1] index = 0
[1] Us = (2.42394e-06 -9.47988e-07 1.39374e-05)
[1] Ur = (2.79778e-05 0.00013305 -0.00259317)
[1] dprim = 1000
[1] phi = 1
[1] rho = 1
[1] nuf = 1
[1] voidfraction = 0.572449
[1] Rep = 0
[1] betaP = 0.000116576
[1] drag = (1.70774 8.12123 -158.285)
[1] cellI = 1021
[1] index = 1
[1] Us = (1.25559e-06 -5.07056e-07 7.93502e-06)
[1] Ur = (-4.58031e-05 -0.000174634 -0.00205346)
[1] dprim = 1000
[1] phi = 1
[1] rho = 1
[1] nuf = 1
[1] voidfraction = 0.531374
[1] Rep = 0
[1] betaP = 0.000135895
[1] drag = (-3.25909 -12.426 -146.112)

Solver level total Eulerian momentum exchange:
  TotalForceImp:  (5207.02 906.533 354641)
  Warning, these values are based on latest Ksl and Us but prev. iteration U!

DILUPBiCG:  Solving for Ux, Initial residual = 0.0433765, Final residual = 1.72333e-05, No Iterations 1
DILUPBiCG:  Solving for Uy, Initial residual = 0.0310225, Final residual = 1.11628e-05, No Iterations 1
DILUPBiCG:  Solving for Uz, Initial residual = 0.01706, Final residual = 4.21875e-06, No Iterations 1
DICPCG:  Solving for p, Initial residual = 0.0513493, Final residual = 0.00424576, No Iterations 70
DICPCG:  Solving for p, Initial residual = 0.00297848, Final residual = 0.000256137, No Iterations 6
time step continuity errors : sum local = 7.25723e-08, global = -1.23692e-09, cumulative = 1.41619e-09
DICPCG:  Solving for p, Initial residual = 0.000317719, Final residual = 3.08514e-05, No Iterations 36
DICPCG:  Solving for p, Initial residual = 3.08518e-05, Final residual = 2.49352e-06, No Iterations 68
time step continuity errors : sum local = 7.05293e-10, global = -1.20285e-11, cumulative = 1.40416e-09
DICPCG:  Solving for p, Initial residual = 2.67205e-06, Final residual = 9.71657e-07, No Iterations 3
DICPCG:  Solving for p, Initial residual = 9.71658e-07, Final residual = 9.71658e-07, No Iterations 0
time step continuity errors : sum local = 2.74612e-10, global = -3.96555e-12, cumulative = 1.40019e-09
DICPCG:  Solving for p, Initial residual = 9.7562e-07, Final residual = 9.7562e-07, No Iterations 0
DICPCG:  Solving for p, Initial residual = 9.7562e-07, Final residual = 9.7562e-07, No Iterations 0
time step continuity errors : sum local = 2.75731e-10, global = -3.93334e-12, cumulative = 1.39626e-09
ExecutionTime = 5.64 s  ClockTime = 6 s

Time = 97000

Courant Number mean: 0.00105937 max: 0.0060853

 Coupling...
Starting up LIGGGHTS
Executing command: 'run 100    '
Setting up run at Wed Mar  8 10:29:45 2023

Memory usage per processor = 7.0564 Mbytes
    Step    Atoms 
  359600     1400 
  359700     1400 
Loop time of 0.0372799 on 4 procs for 100 steps with 1400 atoms, finish time Wed Mar  8 10:29:45 2023


Pair  time (%) = 0.0144399 (38.7337)
Neigh time (%) = 0 (0)
Comm  time (%) = 0.00105044 (2.81771)
Outpt time (%) = 0.000199078 (0.53401)
Other time (%) = 0.0215905 (57.9146)

Nlocal:    350 ave 804 max 0 min
Histogram: 2 0 0 0 0 0 0 1 0 1
Nghost:    570.75 ave 1225 max 0 min
Histogram: 2 0 0 0 0 0 0 0 1 1
Neighs:    8394.75 ave 19048 max 0 min
Histogram: 2 0 0 0 0 0 0 1 0 1

Total # of neighbors = 33579
Ave neighs/atom = 23.985
Neighbor list builds = 0
Dangerous builds = 0
Executing command: 'write_restart ../DEM/liggghts.restartCFDEM'
System init for write_restart ...
LIGGGHTS finished

 timeStepFraction() = 1
[1] cellI = 1020
[1] index = 0
[1] Us = (5.80907e-06 1.74971e-06 1.75948e-05)
[1] Ur = (2.00947e-05 9.88162e-05 -0.00269404)
[1] dprim = 1000
[1] phi = 1
[1] rho = 1
[1] nuf = 1
[1] voidfraction = 0.572442
[1] Rep = 0
[1] betaP = 0.000116753
[1] drag = (1.22842 6.04081 -164.691)
[1] cellI = 1021
[1] index = 1
[1] Us = (3.1181e-06 3.81153e-07 9.31534e-06)
[1] Ur = (-6.61953e-05 -0.000181105 -0.0021281)
[1] dprim = 1000
[1] phi = 1
[1] rho = 1
[1] nuf = 1
[1] voidfraction = 0.53137
[1] Rep = 0
[1] betaP = 0.000136029
[1] drag = (-4.71473 -12.8992 -151.573)

Solver level total Eulerian momentum exchange:
  TotalForceImp:  (9502.69 5489.99 374828)
  Warning, these values are based on latest Ksl and Us but prev. iteration U!

DILUPBiCG:  Solving for Ux, Initial residual = 0.0395786, Final residual = 1.35298e-05, No Iterations 1
DILUPBiCG:  Solving for Uy, Initial residual = 0.0330317, Final residual = 1.05963e-05, No Iterations 1
DILUPBiCG:  Solving for Uz, Initial residual = 0.012695, Final residual = 3.22078e-06, No Iterations 1
DICPCG:  Solving for p, Initial residual = 0.0125546, Final residual = 0.00122885, No Iterations 30
DICPCG:  Solving for p, Initial residual = 0.00122656, Final residual = 0.000103211, No Iterations 67
time step continuity errors : sum local = 2.93582e-08, global = 1.43046e-10, cumulative = 1.53931e-09
DICPCG:  Solving for p, Initial residual = 0.000117438, Final residual = 1.1698e-05, No Iterations 10
DICPCG:  Solving for p, Initial residual = 1.16986e-05, Final residual = 1.12039e-06, No Iterations 65
time step continuity errors : sum local = 3.06251e-10, global = 2.68378e-12, cumulative = 1.54199e-09
DICPCG:  Solving for p, Initial residual = 1.16441e-06, Final residual = 6.85758e-07, No Iterations 1
DICPCG:  Solving for p, Initial residual = 6.85758e-07, Final residual = 6.85758e-07, No Iterations 0
time step continuity errors : sum local = 1.8748e-10, global = 3.67353e-12, cumulative = 1.54566e-09
DICPCG:  Solving for p, Initial residual = 6.85595e-07, Final residual = 6.85595e-07, No Iterations 0
DICPCG:  Solving for p, Initial residual = 6.85595e-07, Final residual = 6.85595e-07, No Iterations 0
time step continuity errors : sum local = 1.87436e-10, global = 3.67729e-12, cumulative = 1.54934e-09
ExecutionTime = 5.69 s  ClockTime = 6 s

Time = 98000

Courant Number mean: 0.00106028 max: 0.00612412

 Coupling...
Starting up LIGGGHTS
Executing command: 'run 100    '
Setting up run at Wed Mar  8 10:29:45 2023

Memory usage per processor = 7.0564 Mbytes
    Step    Atoms 
  359700     1400 
  359800     1400 
Loop time of 0.0372169 on 4 procs for 100 steps with 1400 atoms, finish time Wed Mar  8 10:29:45 2023


Pair  time (%) = 0.0144231 (38.7541)
Neigh time (%) = 0 (0)
Comm  time (%) = 0.00104361 (2.80412)
Outpt time (%) = 0.000199474 (0.535976)
Other time (%) = 0.0215508 (57.9058)

Nlocal:    350 ave 804 max 0 min
Histogram: 2 0 0 0 0 0 0 1 0 1
Nghost:    570.75 ave 1225 max 0 min
Histogram: 2 0 0 0 0 0 0 0 1 1
Neighs:    8394.5 ave 19048 max 0 min
Histogram: 2 0 0 0 0 0 0 1 0 1

Total # of neighbors = 33578
Ave neighs/atom = 23.9843
Neighbor list builds = 0
Dangerous builds = 0
Executing command: 'write_restart ../DEM/liggghts.restartCFDEM'
System init for write_restart ...
LIGGGHTS finished

 timeStepFraction() = 1
[1] cellI = 1020
[1] index = 0
[1] Us = (-6.40749e-06 7.8342e-07 -6.03975e-06)
[1] Ur = (3.67879e-05 6.89125e-05 -0.00273281)
[1] dprim = 1000
[1] phi = 1
[1] rho = 1
[1] nuf = 1
[1] voidfraction = 0.572444
[1] Rep = 0
[1] betaP = 0.000116819
[1] drag = (2.25017 4.2151 -167.155)
[1] cellI = 1021
[1] index = 1
[1] Us = (-5.1924e-06 -1.93536e-06 -3.73089e-06)
[1] Ur = (-7.33011e-05 -0.00017929 -0.00215546)
[1] dprim = 1000
[1] phi = 1
[1] rho = 1
[1] nuf = 1
[1] voidfraction = 0.531371
[1] Rep = 0
[1] betaP = 0.000136076
[1] drag = (-5.22264 -12.7743 -153.574)

Solver level total Eulerian momentum exchange:
  TotalForceImp:  (-34325.9 -5663.88 212214)
  Warning, these values are based on latest Ksl and Us but prev. iteration U!

DILUPBiCG:  Solving for Ux, Initial residual = 0.0700036, Final residual = 1.16098e-05, No Iterations 1
DILUPBiCG:  Solving for Uy, Initial residual = 0.0389386, Final residual = 7.86207e-06, No Iterations 1
DILUPBiCG:  Solving for Uz, Initial residual = 0.0149268, Final residual = 2.99363e-06, No Iterations 1
DICPCG:  Solving for p, Initial residual = 0.0200873, Final residual = 0.00166907, No Iterations 70
DICPCG:  Solving for p, Initial residual = 0.0020553, Final residual = 0.000159233, No Iterations 6
time step continuity errors : sum local = 3.5055e-08, global = 4.41429e-10, cumulative = 1.99077e-09
DICPCG:  Solving for p, Initial residual = 0.00020613, Final residual = 2.02242e-05, No Iterations 33
DICPCG:  Solving for p, Initial residual = 2.02278e-05, Final residual = 1.54895e-06, No Iterations 68
time step continuity errors : sum local = 3.40503e-10, global = -4.13613e-12, cumulative = 1.98663e-09
DICPCG:  Solving for p, Initial residual = 1.69712e-06, Final residual = 9.79679e-07, No Iterations 1
DICPCG:  Solving for p, Initial residual = 9.7968e-07, Final residual = 9.7968e-07, No Iterations 0
time step continuity errors : sum local = 2.15515e-10, global = -6.11014e-12, cumulative = 1.98052e-09
DICPCG:  Solving for p, Initial residual = 9.79519e-07, Final residual = 9.79519e-07, No Iterations 0
DICPCG:  Solving for p, Initial residual = 9.79519e-07, Final residual = 9.79519e-07, No Iterations 0
time step continuity errors : sum local = 2.15479e-10, global = -6.12558e-12, cumulative = 1.9744e-09
ExecutionTime = 5.75 s  ClockTime = 6 s

Time = 99000

Courant Number mean: 0.00105963 max: 0.00608505

 Coupling...
Starting up LIGGGHTS
Executing command: 'run 100    '
Setting up run at Wed Mar  8 10:29:45 2023

Memory usage per processor = 7.0564 Mbytes
    Step    Atoms 
  359800     1400 
  359900     1400 
Loop time of 0.0370458 on 4 procs for 100 steps with 1400 atoms, finish time Wed Mar  8 10:29:45 2023


Pair  time (%) = 0.0143388 (38.7055)
Neigh time (%) = 0 (0)
Comm  time (%) = 0.00103994 (2.80717)
Outpt time (%) = 0.000198579 (0.536037)
Other time (%) = 0.0214685 (57.9513)

Nlocal:    350 ave 804 max 0 min
Histogram: 2 0 0 0 0 0 0 1 0 1
Nghost:    570.75 ave 1225 max 0 min
Histogram: 2 0 0 0 0 0 0 0 1 1
Neighs:    8394.25 ave 19047 max 0 min
Histogram: 2 0 0 0 0 0 0 1 0 1

Total # of neighbors = 33577
Ave neighs/atom = 23.9836
Neighbor list builds = 0
Dangerous builds = 0
Executing command: 'write_restart ../DEM/liggghts.restartCFDEM'
System init for write_restart ...
LIGGGHTS finished

 timeStepFraction() = 1
[1] cellI = 1020
[1] index = 0
[1] Us = (-1.21768e-06 -2.98439e-06 -6.63506e-06)
[1] Ur = (3.99318e-05 7.61202e-05 -0.0026944)
[1] dprim = 1000
[1] phi = 1
[1] rho = 1
[1] nuf = 1
[1] voidfraction = 0.572445
[1] Rep = 0
[1] betaP = 0.000116751
[1] drag = (2.44107 4.6533 -164.711)
[1] cellI = 1021
[1] index = 1
[1] Us = (-1.12999e-06 6.75547e-07 -3.15591e-06)
[1] Ur = (-7.18082e-05 -0.000186927 -0.00213708)
[1] dprim = 1000
[1] phi = 1
[1] rho = 1
[1] nuf = 1
[1] voidfraction = 0.531372
[1] Rep = 0
[1] betaP = 0.000136044
[1] drag = (-5.11509 -13.3153 -152.23)

Solver level total Eulerian momentum exchange:
  TotalForceImp:  (-6780.05 -3689.71 228240)
  Warning, these values are based on latest Ksl and Us but prev. iteration U!

DILUPBiCG:  Solving for Ux, Initial residual = 0.0571317, Final residual = 6.20474e-06, No Iterations 1
DILUPBiCG:  Solving for Uy, Initial residual = 0.0418724, Final residual = 4.19088e-06, No Iterations 1
DILUPBiCG:  Solving for Uz, Initial residual = 0.00582798, Final residual = 7.62947e-07, No Iterations 1
DICPCG:  Solving for p, Initial residual = 0.0345403, Final residual = 0.00212705, No Iterations 70
DICPCG:  Solving for p, Initial residual = 0.00263936, Final residual = 0.000210314, No Iterations 6
time step continuity errors : sum local = 3.72016e-08, global = 1.59993e-09, cumulative = 3.57432e-09
DICPCG:  Solving for p, Initial residual = 0.000279016, Final residual = 2.1915e-05, No Iterations 33
DICPCG:  Solving for p, Initial residual = 2.192e-05, Final residual = 1.60631e-06, No Iterations 68
time step continuity errors : sum local = 2.8361e-10, global = -7.40886e-13, cumulative = 3.57358e-09
DICPCG:  Solving for p, Initial residual = 1.81488e-06, Final residual = 7.7661e-07, No Iterations 3
DICPCG:  Solving for p, Initial residual = 7.7661e-07, Final residual = 7.7661e-07, No Iterations 0
time step continuity errors : sum local = 1.37197e-10, global = -5.29362e-12, cumulative = 3.56829e-09
DICPCG:  Solving for p, Initial residual = 7.79766e-07, Final residual = 7.79766e-07, No Iterations 0
DICPCG:  Solving for p, Initial residual = 7.79766e-07, Final residual = 7.79766e-07, No Iterations 0
time step continuity errors : sum local = 1.37755e-10, global = -5.31936e-12, cumulative = 3.56297e-09
ExecutionTime = 5.81 s  ClockTime = 6 s

Time = 100000

Courant Number mean: 0.00105886 max: 0.00602573

 Coupling...
Starting up LIGGGHTS
Executing command: 'run 100    '
Setting up run at Wed Mar  8 10:29:45 2023

Memory usage per processor = 7.0564 Mbytes
    Step    Atoms 
  359900     1400 
  360000     1400 
Loop time of 0.0433082 on 4 procs for 100 steps with 1400 atoms, finish time Wed Mar  8 10:29:45 2023


Pair  time (%) = 0.0143799 (33.2036)
Neigh time (%) = 0 (0)
Comm  time (%) = 0.00104354 (2.40956)
Outpt time (%) = 0.00616918 (14.2448)
Other time (%) = 0.0217156 (50.142)

Nlocal:    350 ave 804 max 0 min
Histogram: 2 0 0 0 0 0 0 1 0 1
Nghost:    570.75 ave 1225 max 0 min
Histogram: 2 0 0 0 0 0 0 0 1 1
Neighs:    8394.5 ave 19048 max 0 min
Histogram: 2 0 0 0 0 0 0 1 0 1

Total # of neighbors = 33578
Ave neighs/atom = 23.9843
Neighbor list builds = 0
Dangerous builds = 0
Executing command: 'write_restart ../DEM/liggghts.restartCFDEM'
System init for write_restart ...
LIGGGHTS finished

 timeStepFraction() = 1
[1] cellI = 1020
[1] index = 0
[1] Us = (2.84675e-06 1.41759e-06 -1.57165e-05)
[1] Ur = (3.96982e-05 8.82072e-05 -0.00262512)
[1] dprim = 1000
[1] phi = 1
[1] rho = 1
[1] nuf = 1
[1] voidfraction = 0.572448
[1] Rep = 0
[1] betaP = 0.00011663
[1] drag = (2.42426 5.38656 -160.309)
[1] cellI = 1021
[1] index = 1
[1] Us = (6.16824e-06 2.09647e-06 -8.28272e-06)
[1] Ur = (-7.20181e-05 -0.000201308 -0.00209299)
[1] dprim = 1000
[1] phi = 1
[1] rho = 1
[1] nuf = 1
[1] voidfraction = 0.531373
[1] Rep = 0
[1] betaP = 0.000135969
[1] drag = (-5.12721 -14.3318 -149.007)

Solver level total Eulerian momentum exchange:
  TotalForceImp:  (40555.6 10578.4 239719)
  Warning, these values are based on latest Ksl and Us but prev. iteration U!

DILUPBiCG:  Solving for Ux, Initial residual = 0.0958191, Final residual = 1.58576e-05, No Iterations 1
DILUPBiCG:  Solving for Uy, Initial residual = 0.0478939, Final residual = 1.3568e-05, No Iterations 1
DILUPBiCG:  Solving for Uz, Initial residual = 0.0101144, Final residual = 2.71607e-06, No Iterations 1
DICPCG:  Solving for p, Initial residual = 0.0466425, Final residual = 0.0045874, No Iterations 50
DICPCG:  Solving for p, Initial residual = 0.0045444, Final residual = 0.000409481, No Iterations 68
time step continuity errors : sum local = 7.25982e-08, global = -8.43577e-10, cumulative = 2.71939e-09
DICPCG:  Solving for p, Initial residual = 0.000397838, Final residual = 3.63251e-05, No Iterations 11
DICPCG:  Solving for p, Initial residual = 3.63302e-05, Final residual = 2.37079e-06, No Iterations 68
time step continuity errors : sum local = 4.97627e-10, global = 5.98812e-12, cumulative = 2.72538e-09
DICPCG:  Solving for p, Initial residual = 2.73822e-06, Final residual = 9.6161e-07, No Iterations 3
DICPCG:  Solving for p, Initial residual = 9.61611e-07, Final residual = 9.61611e-07, No Iterations 0
time step continuity errors : sum local = 2.0169e-10, global = 1.46772e-12, cumulative = 2.72685e-09
DICPCG:  Solving for p, Initial residual = 9.65356e-07, Final residual = 9.65356e-07, No Iterations 0
DICPCG:  Solving for p, Initial residual = 9.65356e-07, Final residual = 9.65356e-07, No Iterations 0
time step continuity errors : sum local = 2.02475e-10, global = 1.44756e-12, cumulative = 2.7283e-09
ExecutionTime = 5.88 s  ClockTime = 6 s

End

Finalising parallel run
